@<TRIPOS>MOLECULE
LIG
   43    45     1     0     0
SMALL
bcc


@<TRIPOS>ATOM
      1 O1          -6.4520    -0.2610    -1.7020 oh         1 LIG      -0.593800
      2 C1          -5.5200     0.6210    -2.3140 c3         1 LIG       0.170700
      3 C2          -4.3400     0.8550    -1.4100 ca         1 LIG      -0.128300
      4 C3          -3.1870     0.0700    -1.5240 ca         1 LIG      -0.115500
      5 C4          -2.0990     0.2740    -0.6710 ca         1 LIG      -0.128500
      6 C5          -2.1400     1.2650     0.3210 ca         1 LIG      -0.078300
      7 C6          -0.9880     1.5080     1.2910 c3         1 LIG      -0.093400
      8 C7          -1.2040     0.8100     2.6540 c3         1 LIG       0.162800
      9 N1          -1.2860    -0.6610     2.5750 n8         1 LIG      -0.935800
     10 C8           0.4070     1.2580     0.6900 c          1 LIG       0.670100
     11 O2           0.9770     2.1450     0.0570 o          1 LIG      -0.596100
     12 N2           0.8890    -0.0230     0.8970 ns         1 LIG      -0.454100
     13 C9           2.0980    -0.5860     0.4490 ca         1 LIG       0.083600
     14 C10          2.3530    -1.9120     0.8160 ca         1 LIG      -0.169000
     15 C11          3.5280    -2.5520     0.4120 ca         1 LIG      -0.078000
     16 C12          4.4720    -1.8690    -0.3700 ca         1 LIG      -0.187300
     17 C13          5.6650    -2.4520    -0.8060 ca         1 LIG       0.427200
     18 N3           6.5960    -1.8250    -1.5610 nb         1 LIG      -0.672000
     19 C14          6.3290    -0.5470    -1.9030 ca         1 LIG       0.384200
     20 C15          5.1800     0.1300    -1.5280 ca         1 LIG      -0.232300
     21 C16          4.2270    -0.5350    -0.7470 ca         1 LIG       0.014000
     22 C17          3.0380     0.0930    -0.3310 ca         1 LIG      -0.169000
     23 C18         -3.3080     2.0360     0.4420 ca         1 LIG      -0.128500
     24 C19         -4.3960     1.8320    -0.4110 ca         1 LIG      -0.115500
     25 H1          -6.0510    -0.5920    -0.8800 ho         1 LIG       0.401000
     26 H2          -5.2020     0.1840    -3.2660 h1         1 LIG       0.057700
     27 H3          -6.0280     1.5640    -2.5420 h1         1 LIG       0.057700
     28 H4          -3.1240    -0.7040    -2.2870 ha         1 LIG       0.143000
     29 H5          -1.2200    -0.3530    -0.8030 ha         1 LIG       0.139000
     30 H6          -0.9830     2.5880     1.5080 hc         1 LIG       0.101700
     31 H7          -0.3750     1.0640     3.3260 h1         1 LIG       0.041700
     32 H8          -2.1230     1.1810     3.1220 h1         1 LIG       0.041700
     33 H9          -1.4600    -1.0220     3.5170 hn         1 LIG       0.360800
     34 H10         -2.1310    -0.9040     2.0470 hn         1 LIG       0.360800
     35 H11          0.2820    -0.6290     1.4560 hn         1 LIG       0.342500
     36 H12          1.6390    -2.4660     1.4220 ha         1 LIG       0.135000
     37 H13          3.7010    -3.5830     0.7120 ha         1 LIG       0.136000
     38 H14          5.9140    -3.4790    -0.5500 h4         1 LIG       0.019100
     39 H15          7.0890    -0.0620    -2.5090 h4         1 LIG       0.021100
     40 H16          5.0330     1.1590    -1.8420 ha         1 LIG       0.147000
     41 H17          2.8660     1.1220    -0.6330 ha         1 LIG       0.177000
     42 H18         -3.3790     2.8120     1.2020 ha         1 LIG       0.139000
     43 H19         -5.2880     2.4450    -0.2940 ha         1 LIG       0.143000
@<TRIPOS>BOND
     1     1     2 1   
     2     2     3 1   
     3     3     4 ar  
     4     4     5 ar  
     5     5     6 ar  
     6     6     7 1   
     7     7     8 1   
     8     8     9 1   
     9     7    10 1   
    10    10    11 2   
    11    10    12 1   
    12    12    13 1   
    13    13    14 ar  
    14    14    15 ar  
    15    15    16 ar  
    16    16    17 ar  
    17    17    18 ar  
    18    18    19 ar  
    19    19    20 ar  
    20    20    21 ar  
    21    21    22 ar  
    22     6    23 ar  
    23    23    24 ar  
    24    24     3 ar  
    25    22    13 ar  
    26    21    16 ar  
    27     1    25 1   
    28     2    26 1   
    29     2    27 1   
    30     4    28 1   
    31     5    29 1   
    32     7    30 1   
    33     8    31 1   
    34     8    32 1   
    35     9    33 1   
    36     9    34 1   
    37    12    35 1   
    38    14    36 1   
    39    15    37 1   
    40    17    38 1   
    41    19    39 1   
    42    20    40 1   
    43    22    41 1   
    44    23    42 1   
    45    24    43 1   
@<TRIPOS>SUBSTRUCTURE
     1 LIG         1 TEMP              0 ****  ****    0 ROOT
