ar_13503_deesterified
     RDKit          3D

 43 45  0  0  0  0  0  0  0  0999 V2000
   -6.4515   -0.2613   -1.7020 O   0  0  0  0  0  0  0  0  0  0  0  0
   -5.5198    0.6208   -2.3139 C   0  0  0  0  0  0  0  0  0  0  0  0
   -4.3398    0.8547   -1.4101 C   0  0  0  0  0  0  0  0  0  0  0  0
   -3.1871    0.0704   -1.5245 C   0  0  0  0  0  0  0  0  0  0  0  0
   -2.0988    0.2744   -0.6708 C   0  0  0  0  0  0  0  0  0  0  0  0
   -2.1403    1.2653    0.3206 C   0  0  0  0  0  0  0  0  0  0  0  0
   -0.9877    1.5082    1.2908 C   0  0  1  0  0  0  0  0  0  0  0  0
   -1.2036    0.8103    2.6539 C   0  0  0  0  0  0  0  0  0  0  0  0
   -1.2858   -0.6611    2.5752 N   0  0  0  0  0  0  0  0  0  0  0  0
    0.4067    1.2580    0.6896 C   0  0  0  0  0  0  0  0  0  0  0  0
    0.9765    2.1452    0.0566 O   0  0  0  0  0  0  0  0  0  0  0  0
    0.8890   -0.0227    0.8966 N   0  0  0  0  0  0  0  0  0  0  0  0
    2.0982   -0.5862    0.4486 C   0  0  0  0  0  0  0  0  0  0  0  0
    2.3526   -1.9124    0.8155 C   0  0  0  0  0  0  0  0  0  0  0  0
    3.5277   -2.5516    0.4120 C   0  0  0  0  0  0  0  0  0  0  0  0
    4.4717   -1.8690   -0.3705 C   0  0  0  0  0  0  0  0  0  0  0  0
    5.6649   -2.4523   -0.8058 C   0  0  0  0  0  0  0  0  0  0  0  0
    6.5961   -1.8245   -1.5609 N   0  0  0  0  0  0  0  0  0  0  0  0
    6.3292   -0.5475   -1.9034 C   0  0  0  0  0  0  0  0  0  0  0  0
    5.1797    0.1301   -1.5282 C   0  0  0  0  0  0  0  0  0  0  0  0
    4.2271   -0.5352   -0.7467 C   0  0  0  0  0  0  0  0  0  0  0  0
    3.0376    0.0934   -0.3308 C   0  0  0  0  0  0  0  0  0  0  0  0
   -3.3083    2.0364    0.4419 C   0  0  0  0  0  0  0  0  0  0  0  0
   -4.3957    1.8320   -0.4109 C   0  0  0  0  0  0  0  0  0  0  0  0
   -6.0511   -0.5923   -0.8803 H   0  0  0  0  0  0  0  0  0  0  0  0
   -5.2020    0.1838   -3.2664 H   0  0  0  0  0  0  0  0  0  0  0  0
   -6.0277    1.5639   -2.5416 H   0  0  0  0  0  0  0  0  0  0  0  0
   -3.1239   -0.7044   -2.2866 H   0  0  0  0  0  0  0  0  0  0  0  0
   -1.2203   -0.3534   -0.8035 H   0  0  0  0  0  0  0  0  0  0  0  0
   -0.9826    2.5879    1.5079 H   0  0  0  0  0  0  0  0  0  0  0  0
   -0.3752    1.0643    3.3257 H   0  0  0  0  0  0  0  0  0  0  0  0
   -2.1234    1.1805    3.1220 H   0  0  0  0  0  0  0  0  0  0  0  0
   -1.4603   -1.0223    3.5169 H   0  0  0  0  0  0  0  0  0  0  0  0
   -2.1308   -0.9039    2.0466 H   0  0  0  0  0  0  0  0  0  0  0  0
    0.2822   -0.6286    1.4560 H   0  0  0  0  0  0  0  0  0  0  0  0
    1.6394   -2.4657    1.4221 H   0  0  0  0  0  0  0  0  0  0  0  0
    3.7012   -3.5826    0.7117 H   0  0  0  0  0  0  0  0  0  0  0  0
    5.9144   -3.4787   -0.5499 H   0  0  0  0  0  0  0  0  0  0  0  0
    7.0891   -0.0621   -2.5093 H   0  0  0  0  0  0  0  0  0  0  0  0
    5.0331    1.1586   -1.8418 H   0  0  0  0  0  0  0  0  0  0  0  0
    2.8664    1.1223   -0.6329 H   0  0  0  0  0  0  0  0  0  0  0  0
   -3.3794    2.8123    1.2022 H   0  0  0  0  0  0  0  0  0  0  0  0
   -5.2876    2.4450   -0.2943 H   0  0  0  0  0  0  0  0  0  0  0  0
  1  2  1  0
  2  3  1  0
  3  4  1  0
  4  5  2  0
  5  6  1  0
  6  7  1  0
  7  8  1  0
  8  9  1  0
  7 10  1  0
 10 11  2  0
 10 12  1  0
 12 13  1  0
 13 14  1  0
 14 15  2  0
 15 16  1  0
 16 17  2  0
 17 18  1  0
 18 19  2  0
 19 20  1  0
 20 21  2  0
 21 22  1  0
  6 23  2  0
 23 24  1  0
 24  3  2  0
 22 13  2  0
 21 16  1  0
  1 25  1  0
  2 26  1  0
  2 27  1  0
  4 28  1  0
  5 29  1  0
  7 30  1  1
  8 31  1  0
  8 32  1  0
  9 33  1  0
  9 34  1  0
 12 35  1  0
 14 36  1  0
 15 37  1  0
 17 38  1  0
 19 39  1  0
 20 40  1  0
 22 41  1  0
 23 42  1  0
 24 43  1  0
M  END
>  <canonical_isomeric_smiles>  (1) 
NC[C@@H](C(=O)Nc1ccc2cnccc2c1)c1ccc(CO)cc1

$$$$
