@<TRIPOS>MOLECULE
LIG
   61    64     1     0     0
SMALL
bcc


@<TRIPOS>ATOM
      1 C1           8.8250    -1.1010     1.4190 c3         1 LIG      -0.061800
      2 C2           7.5450    -0.3400     1.2320 ca         1 LIG      -0.034300
      3 C3           6.5090    -0.4600     2.1610 ca         1 LIG      -0.156000
      4 C4           5.3070     0.2190     1.9640 ca         1 LIG      -0.066000
      5 C5           5.1190     1.0150     0.8250 ca         1 LIG      -0.145600
      6 C6           3.8010     1.6810     0.7020 c          1 LIG       0.654700
      7 O1           3.2360     2.2300     1.6340 o          1 LIG      -0.560000
      8 O2           3.3200     1.5070    -0.5510 os         1 LIG      -0.429900
      9 C7           1.9940     1.9970    -0.7740 c3         1 LIG       0.179700
     10 C8           1.0140     0.8570    -0.6610 ca         1 LIG      -0.112300
     11 C9           0.7980    -0.0070    -1.7400 ca         1 LIG      -0.113000
     12 C10         -0.0870    -1.0820    -1.6230 ca         1 LIG      -0.120500
     13 C11         -0.7720    -1.3170    -0.4210 ca         1 LIG      -0.092300
     14 C12         -1.7510    -2.4820    -0.3180 c3         1 LIG      -0.087400
     15 C13         -1.1780    -3.6790     0.4770 c3         1 LIG       0.180800
     16 N1          -0.9910    -3.4560     1.9160 n8         1 LIG      -0.921800
     17 C14         -3.1570    -2.0760     0.1640 c          1 LIG       0.675100
     18 O3          -3.7630    -2.7320     1.0090 o          1 LIG      -0.603100
     19 N2          -3.6610    -0.9670    -0.5040 ns         1 LIG      -0.466100
     20 C15         -4.9330    -0.3730    -0.3640 ca         1 LIG       0.094600
     21 C16         -5.9410    -0.8710     0.4610 ca         1 LIG      -0.148000
     22 C17         -7.1780    -0.2220     0.5390 ca         1 LIG      -0.081000
     23 C18         -7.4260     0.9390    -0.2100 ca         1 LIG      -0.184300
     24 C19         -8.6420     1.6260    -0.1700 ca         1 LIG       0.430200
     25 N3          -8.9140     2.7460    -0.8790 nb         1 LIG      -0.672000
     26 C20         -7.9260     3.2110    -1.6700 ca         1 LIG       0.387200
     27 C21         -6.6810     2.6110    -1.7870 ca         1 LIG      -0.238300
     28 C22         -6.4180     1.4510    -1.0470 ca         1 LIG       0.016000
     29 C23         -5.1800     0.7860    -1.1140 ca         1 LIG      -0.197000
     30 C24         -0.5360    -0.4610     0.6640 ca         1 LIG      -0.120500
     31 C25          0.3480     0.6130     0.5450 ca         1 LIG      -0.113000
     32 C26          6.1570     1.1640    -0.1150 ca         1 LIG       0.000700
     33 C27          6.0300     2.0260    -1.3390 c3         1 LIG      -0.061800
     34 C28          7.3570     0.4600     0.0950 ca         1 LIG      -0.157000
     35 H1           8.7540    -2.0770     0.9300 hc         1 LIG       0.049700
     36 H2           9.0380    -1.2530     2.4830 hc         1 LIG       0.049700
     37 H3           9.6720    -0.5510     0.9950 hc         1 LIG       0.049700
     38 H4           6.6290    -1.0840     3.0440 ha         1 LIG       0.140000
     39 H5           4.5080     0.1170     2.6960 ha         1 LIG       0.157000
     40 H6           1.7270     2.8250    -0.1060 h1         1 LIG       0.072200
     41 H7           1.9630     2.4100    -1.7890 h1         1 LIG       0.072200
     42 H8           1.3310     0.1440    -2.6770 ha         1 LIG       0.148500
     43 H9          -0.2270    -1.7390    -2.4780 ha         1 LIG       0.143500
     44 H10         -1.9220    -2.8540    -1.3390 hc         1 LIG       0.080700
     45 H11         -1.8470    -4.5400     0.3570 h1         1 LIG       0.039700
     46 H12         -0.2100    -3.9690     0.0500 h1         1 LIG       0.039700
     47 H13         -0.6730    -4.3220     2.3500 hn         1 LIG       0.361300
     48 H14         -1.9120    -3.2680     2.3260 hn         1 LIG       0.361300
     49 H15         -3.0230    -0.4990    -1.1370 hn         1 LIG       0.328500
     50 H16         -5.8020    -1.7650     1.0600 ha         1 LIG       0.174000
     51 H17         -7.9450    -0.6320     1.1920 ha         1 LIG       0.139000
     52 H18         -9.4610     1.2820     0.4560 h4         1 LIG       0.021100
     53 H19         -8.1660     4.1120    -2.2280 h4         1 LIG       0.021100
     54 H20         -5.9360     3.0460    -2.4440 ha         1 LIG       0.142000
     55 H21         -4.4020     1.1880    -1.7600 ha         1 LIG       0.137000
     56 H22         -1.0280    -0.6320     1.6210 ha         1 LIG       0.143500
     57 H23          0.5270     1.2510     1.4100 ha         1 LIG       0.148500
     58 H24          7.0140     2.2860    -1.7420 hc         1 LIG       0.056033
     59 H25          5.5300     2.9710    -1.1020 hc         1 LIG       0.056033
     60 H26          5.4720     1.4990    -2.1180 hc         1 LIG       0.056033
     61 H27          8.1620     0.5410    -0.6350 ha         1 LIG       0.138000
@<TRIPOS>BOND
     1     1     2 1   
     2     2     3 ar  
     3     3     4 ar  
     4     4     5 ar  
     5     5     6 1   
     6     6     7 2   
     7     6     8 1   
     8     8     9 1   
     9     9    10 1   
    10    10    11 ar  
    11    11    12 ar  
    12    12    13 ar  
    13    13    14 1   
    14    14    15 1   
    15    15    16 1   
    16    14    17 1   
    17    17    18 2   
    18    17    19 1   
    19    19    20 1   
    20    20    21 ar  
    21    21    22 ar  
    22    22    23 ar  
    23    23    24 ar  
    24    24    25 ar  
    25    25    26 ar  
    26    26    27 ar  
    27    27    28 ar  
    28    28    29 ar  
    29    13    30 ar  
    30    30    31 ar  
    31     5    32 ar  
    32    32    33 1   
    33    32    34 ar  
    34    34     2 ar  
    35    31    10 ar  
    36    29    20 ar  
    37    28    23 ar  
    38     1    35 1   
    39     1    36 1   
    40     1    37 1   
    41     3    38 1   
    42     4    39 1   
    43     9    40 1   
    44     9    41 1   
    45    11    42 1   
    46    12    43 1   
    47    14    44 1   
    48    15    45 1   
    49    15    46 1   
    50    16    47 1   
    51    16    48 1   
    52    19    49 1   
    53    21    50 1   
    54    22    51 1   
    55    24    52 1   
    56    26    53 1   
    57    27    54 1   
    58    29    55 1   
    59    30    56 1   
    60    31    57 1   
    61    33    58 1   
    62    33    59 1   
    63    33    60 1   
    64    34    61 1   
@<TRIPOS>SUBSTRUCTURE
     1 LIG         1 TEMP              0 ****  ****    0 ROOT
