23CL2BA
     RDKit          3D

 17 17  0  0  0  0  0  0  0  0999 V2000
   -2.6383    0.1714   -0.4079 N   0  0  0  0  0  0  0  0  0  0  0  0
   -1.7196   -0.1018    0.7207 C   0  0  0  0  0  0  0  0  0  0  0  0
   -0.2729   -0.0451    0.3133 C   0  0  0  0  0  0  0  0  0  0  0  0
    0.4605   -1.2416    0.2117 C   0  0  0  0  0  0  0  0  0  0  0  0
    1.8021   -1.2237   -0.1711 C   0  0  0  0  0  0  0  0  0  0  0  0
    2.4317   -0.0148   -0.4601 C   0  0  0  0  0  0  0  0  0  0  0  0
    1.7244    1.1849   -0.3674 C   0  0  0  0  0  0  0  0  0  0  0  0
    2.5702    2.6415   -0.7486 Cl  0  0  0  0  0  0  0  0  0  0  0  0
    0.3741    1.1754    0.0181 C   0  0  0  0  0  0  0  0  0  0  0  0
   -0.5232    2.6574    0.1275 Cl  0  0  0  0  0  0  0  0  0  0  0  0
   -3.6219    0.1426   -0.1146 H   0  0  0  0  0  0  0  0  0  0  0  0
   -2.5071   -0.4967   -1.1768 H   0  0  0  0  0  0  0  0  0  0  0  0
   -1.9471    0.6193    1.5123 H   0  0  0  0  0  0  0  0  0  0  0  0
   -1.9891   -1.0942    1.0980 H   0  0  0  0  0  0  0  0  0  0  0  0
    0.0091   -2.2073    0.4405 H   0  0  0  0  0  0  0  0  0  0  0  0
    2.3667   -2.1533   -0.2400 H   0  0  0  0  0  0  0  0  0  0  0  0
    3.4802   -0.0139   -0.7555 H   0  0  0  0  0  0  0  0  0  0  0  0
  1  2  1  0
  2  3  1  0
  3  4  2  0
  4  5  1  0
  5  6  2  0
  6  7  1  0
  7  8  1  0
  7  9  2  0
  9 10  1  0
  9  3  1  0
  1 11  1  0
  1 12  1  0
  2 13  1  0
  2 14  1  0
  4 15  1  0
  5 16  1  0
  6 17  1  0
M  CHG  1   1   1
M  END
>  <PARENT_COMPOUND>  (1) 
23CL2BA

>  <PREPARED_SMILES>  (1) 
[NH3+]Cc1cccc(Cl)c1Cl

$$$$
