24DCMB_R
     RDKit          3D

 20 20  0  0  0  0  0  0  0  0999 V2000
   -2.1026   -0.5940    1.0648 C   0  0  0  0  0  0  0  0  0  0  0  0
   -1.4682   -0.1318   -0.2427 C   0  0  1  0  0  0  0  0  0  0  0  0
   -2.1215    1.1338   -0.6668 N   0  0  0  0  0  0  0  0  0  0  0  0
    0.0432   -0.0435   -0.1718 C   0  0  0  0  0  0  0  0  0  0  0  0
    0.7971   -1.0558   -0.8015 C   0  0  0  0  0  0  0  0  0  0  0  0
    2.1943   -1.0457   -0.7601 C   0  0  0  0  0  0  0  0  0  0  0  0
    2.8618   -0.0294   -0.0853 C   0  0  0  0  0  0  0  0  0  0  0  0
    4.5787   -0.0186   -0.0384 Cl  0  0  0  0  0  0  0  0  0  0  0  0
    2.1445    0.9776    0.5508 C   0  0  0  0  0  0  0  0  0  0  0  0
    0.7463    0.9698    0.5110 C   0  0  0  0  0  0  0  0  0  0  0  0
   -0.0626    2.2637    1.3201 Cl  0  0  0  0  0  0  0  0  0  0  0  0
   -1.9422    0.1154    1.8826 H   0  0  0  0  0  0  0  0  0  0  0  0
   -3.1843   -0.7240    0.9476 H   0  0  0  0  0  0  0  0  0  0  0  0
   -1.6853   -1.5573    1.3790 H   0  0  0  0  0  0  0  0  0  0  0  0
   -1.7454   -0.8454   -1.0281 H   0  0  0  0  0  0  0  0  0  0  0  0
   -1.6805    1.5255   -1.5080 H   0  0  0  0  0  0  0  0  0  0  0  0
   -3.1236    1.0110   -0.8544 H   0  0  0  0  0  0  0  0  0  0  0  0
    0.3136   -1.8795   -1.3282 H   0  0  0  0  0  0  0  0  0  0  0  0
    2.7589   -1.8377   -1.2505 H   0  0  0  0  0  0  0  0  0  0  0  0
    2.6777    1.7657    1.0799 H   0  0  0  0  0  0  0  0  0  0  0  0
  1  2  1  0
  2  3  1  0
  2  4  1  0
  4  5  1  0
  5  6  2  0
  6  7  1  0
  7  8  1  0
  7  9  2  0
  9 10  1  0
 10 11  1  0
 10  4  2  0
  1 12  1  0
  1 13  1  0
  1 14  1  0
  2 15  1  6
  3 16  1  0
  3 17  1  0
  5 18  1  0
  6 19  1  0
  9 20  1  0
M  CHG  1   3   1
M  END
>  <PARENT_COMPOUND>  (1) 
24DCMB

>  <PREPARED_SMILES>  (1) 
C[C@@H]([NH3+])c1ccc(Cl)cc1Cl

$$$$
