24DCMB_S
     RDKit          3D

 20 20  0  0  0  0  0  0  0  0999 V2000
   -2.1504   -0.1009    0.9670 C   0  0  0  0  0  0  0  0  0  0  0  0
   -1.4163    0.4046   -0.2713 C   0  0  2  0  0  0  0  0  0  0  0  0
   -2.0123   -0.2691   -1.4634 N   0  0  0  0  0  0  0  0  0  0  0  0
    0.0830    0.2089   -0.1565 C   0  0  0  0  0  0  0  0  0  0  0  0
    0.6939   -1.0055   -0.5283 C   0  0  0  0  0  0  0  0  0  0  0  0
    2.0763   -1.1809   -0.4019 C   0  0  0  0  0  0  0  0  0  0  0  0
    2.8678   -0.1550    0.1055 C   0  0  0  0  0  0  0  0  0  0  0  0
    4.5638   -0.3810    0.2571 Cl  0  0  0  0  0  0  0  0  0  0  0  0
    2.2903    1.0467    0.4962 C   0  0  0  0  0  0  0  0  0  0  0  0
    0.9096    1.2246    0.3714 C   0  0  0  0  0  0  0  0  0  0  0  0
    0.2589    2.7346    0.9048 Cl  0  0  0  0  0  0  0  0  0  0  0  0
   -1.8060    0.4171    1.8687 H   0  0  0  0  0  0  0  0  0  0  0  0
   -3.2294    0.0677    0.8790 H   0  0  0  0  0  0  0  0  0  0  0  0
   -1.9891   -1.1740    1.1225 H   0  0  0  0  0  0  0  0  0  0  0  0
   -1.6533    1.4589   -0.4396 H   0  0  0  0  0  0  0  0  0  0  0  0
   -2.1187   -1.2804   -1.3223 H   0  0  0  0  0  0  0  0  0  0  0  0
   -2.9425    0.1136   -1.6759 H   0  0  0  0  0  0  0  0  0  0  0  0
    0.1246   -1.8464   -0.9173 H   0  0  0  0  0  0  0  0  0  0  0  0
    2.5347   -2.1239   -0.6973 H   0  0  0  0  0  0  0  0  0  0  0  0
    2.9152    1.8404    0.9015 H   0  0  0  0  0  0  0  0  0  0  0  0
  1  2  1  0
  2  3  1  0
  2  4  1  0
  4  5  1  0
  5  6  2  0
  6  7  1  0
  7  8  1  0
  7  9  2  0
  9 10  1  0
 10 11  1  0
 10  4  2  0
  1 12  1  0
  1 13  1  0
  1 14  1  0
  2 15  1  6
  3 16  1  0
  3 17  1  0
  5 18  1  0
  6 19  1  0
  9 20  1  0
M  CHG  1   3   1
M  END
>  <PARENT_COMPOUND>  (1) 
24DCMB

>  <PREPARED_SMILES>  (1) 
C[C@H]([NH3+])c1ccc(Cl)cc1Cl

$$$$
