25DCMB_S
     RDKit          3D

 20 20  0  0  0  0  0  0  0  0999 V2000
   -2.0139   -0.2598    1.3141 C   0  0  0  0  0  0  0  0  0  0  0  0
   -1.4678    0.1280   -0.0561 C   0  0  2  0  0  0  0  0  0  0  0  0
   -2.1225   -0.7203   -1.0859 N   0  0  0  0  0  0  0  0  0  0  0  0
    0.0451    0.1055   -0.1206 C   0  0  0  0  0  0  0  0  0  0  0  0
    0.7276    1.3414   -0.1098 C   0  0  0  0  0  0  0  0  0  0  0  0
    2.1238    1.3947   -0.1487 C   0  0  0  0  0  0  0  0  0  0  0  0
    2.9140    2.9196   -0.1410 Cl  0  0  0  0  0  0  0  0  0  0  0  0
    2.8709    0.2247   -0.1941 C   0  0  0  0  0  0  0  0  0  0  0  0
    2.2182   -1.0078   -0.1981 C   0  0  0  0  0  0  0  0  0  0  0  0
    0.8199   -1.0702   -0.1593 C   0  0  0  0  0  0  0  0  0  0  0  0
    0.1078   -2.6424   -0.1781 Cl  0  0  0  0  0  0  0  0  0  0  0  0
   -3.1039   -0.1512    1.3432 H   0  0  0  0  0  0  0  0  0  0  0  0
   -1.5958    0.3855    2.0949 H   0  0  0  0  0  0  0  0  0  0  0  0
   -1.7781   -1.2943    1.5821 H   0  0  0  0  0  0  0  0  0  0  0  0
   -1.8188    1.1405   -0.2895 H   0  0  0  0  0  0  0  0  0  0  0  0
   -1.7400   -0.5437   -2.0229 H   0  0  0  0  0  0  0  0  0  0  0  0
   -3.1388   -0.5761   -1.1198 H   0  0  0  0  0  0  0  0  0  0  0  0
    0.1805    2.2833   -0.0605 H   0  0  0  0  0  0  0  0  0  0  0  0
    3.9583    0.2623   -0.2216 H   0  0  0  0  0  0  0  0  0  0  0  0
    2.8135   -1.9198   -0.2281 H   0  0  0  0  0  0  0  0  0  0  0  0
  1  2  1  0
  2  3  1  0
  2  4  1  0
  4  5  1  0
  5  6  2  0
  6  7  1  0
  6  8  1  0
  8  9  2  0
  9 10  1  0
 10 11  1  0
 10  4  2  0
  1 12  1  0
  1 13  1  0
  1 14  1  0
  2 15  1  6
  3 16  1  0
  3 17  1  0
  5 18  1  0
  8 19  1  0
  9 20  1  0
M  CHG  1   3   1
M  END
>  <PARENT_COMPOUND>  (1) 
25DCMB

>  <PREPARED_SMILES>  (1) 
C[C@H]([NH3+])c1cc(Cl)ccc1Cl

$$$$
