25DCMB_R
     RDKit          3D

 20 20  0  0  0  0  0  0  0  0999 V2000
   -2.0661    0.2139    1.0949 C   0  0  0  0  0  0  0  0  0  0  0  0
   -1.4389   -0.3186   -0.1899 C   0  0  1  0  0  0  0  0  0  0  0  0
   -2.0429    0.4240   -1.3364 N   0  0  0  0  0  0  0  0  0  0  0  0
    0.0737   -0.2396   -0.1529 C   0  0  0  0  0  0  0  0  0  0  0  0
    0.7535    0.9386   -0.5254 C   0  0  0  0  0  0  0  0  0  0  0  0
    2.1500    1.0092   -0.4727 C   0  0  0  0  0  0  0  0  0  0  0  0
    2.9385    2.4616   -0.9438 Cl  0  0  0  0  0  0  0  0  0  0  0  0
    2.8978   -0.0790   -0.0410 C   0  0  0  0  0  0  0  0  0  0  0  0
    2.2459   -1.2476    0.3495 C   0  0  0  0  0  0  0  0  0  0  0  0
    0.8497   -1.3270    0.3000 C   0  0  0  0  0  0  0  0  0  0  0  0
    0.1231   -2.8019    0.8296 Cl  0  0  0  0  0  0  0  0  0  0  0  0
   -3.1579    0.1290    1.0624 H   0  0  0  0  0  0  0  0  0  0  0  0
   -1.7151   -0.3482    1.9672 H   0  0  0  0  0  0  0  0  0  0  0  0
   -1.8154    1.2682    1.2604 H   0  0  0  0  0  0  0  0  0  0  0  0
   -1.7651   -1.3479   -0.3631 H   0  0  0  0  0  0  0  0  0  0  0  0
   -2.0622    1.4381   -1.1757 H   0  0  0  0  0  0  0  0  0  0  0  0
   -3.0101    0.1193   -1.5051 H   0  0  0  0  0  0  0  0  0  0  0  0
    0.2203    1.8260   -0.8570 H   0  0  0  0  0  0  0  0  0  0  0  0
    3.9839   -0.0244    0.0017 H   0  0  0  0  0  0  0  0  0  0  0  0
    2.8372   -2.0938    0.6973 H   0  0  0  0  0  0  0  0  0  0  0  0
  1  2  1  0
  2  3  1  0
  2  4  1  0
  4  5  1  0
  5  6  2  0
  6  7  1  0
  6  8  1  0
  8  9  2  0
  9 10  1  0
 10 11  1  0
 10  4  2  0
  1 12  1  0
  1 13  1  0
  1 14  1  0
  2 15  1  6
  3 16  1  0
  3 17  1  0
  5 18  1  0
  8 19  1  0
  9 20  1  0
M  CHG  1   3   1
M  END
>  <PARENT_COMPOUND>  (1) 
25DCMB

>  <PREPARED_SMILES>  (1) 
C[C@@H]([NH3+])c1cc(Cl)ccc1Cl

$$$$
