26DCMB_R
     RDKit          3D

 20 20  0  0  0  0  0  0  0  0999 V2000
   -2.0086    0.0741    1.2787 C   0  0  0  0  0  0  0  0  0  0  0  0
   -1.4397   -0.1897   -0.1131 C   0  0  1  0  0  0  0  0  0  0  0  0
   -2.1102    0.7293   -1.0762 N   0  0  0  0  0  0  0  0  0  0  0  0
    0.0753   -0.1242   -0.1433 C   0  0  0  0  0  0  0  0  0  0  0  0
    0.8387   -1.3134   -0.1377 C   0  0  0  0  0  0  0  0  0  0  0  0
    0.1004   -2.8779   -0.1135 Cl  0  0  0  0  0  0  0  0  0  0  0  0
    2.2379   -1.2863   -0.1454 C   0  0  0  0  0  0  0  0  0  0  0  0
    2.9147   -0.0728   -0.1461 C   0  0  0  0  0  0  0  0  0  0  0  0
    2.1920    1.1145   -0.1323 C   0  0  0  0  0  0  0  0  0  0  0  0
    0.7918    1.0922   -0.1248 C   0  0  0  0  0  0  0  0  0  0  0  0
    0.0076    2.6334   -0.0919 Cl  0  0  0  0  0  0  0  0  0  0  0  0
   -3.0978   -0.0458    1.2837 H   0  0  0  0  0  0  0  0  0  0  0  0
   -1.7857    1.0840    1.6371 H   0  0  0  0  0  0  0  0  0  0  0  0
   -1.5950   -0.6320    2.0075 H   0  0  0  0  0  0  0  0  0  0  0  0
   -1.7939   -1.1687   -0.4436 H   0  0  0  0  0  0  0  0  0  0  0  0
   -1.7481    0.6046   -2.0295 H   0  0  0  0  0  0  0  0  0  0  0  0
   -3.1267    0.5830   -1.1010 H   0  0  0  0  0  0  0  0  0  0  0  0
    2.8115   -2.2128   -0.1427 H   0  0  0  0  0  0  0  0  0  0  0  0
    4.0034   -0.0523   -0.1466 H   0  0  0  0  0  0  0  0  0  0  0  0
    2.7325    2.0608   -0.1194 H   0  0  0  0  0  0  0  0  0  0  0  0
  1  2  1  0
  2  3  1  0
  2  4  1  0
  4  5  2  0
  5  6  1  0
  5  7  1  0
  7  8  2  0
  8  9  1  0
  9 10  2  0
 10 11  1  0
 10  4  1  0
  1 12  1  0
  1 13  1  0
  1 14  1  0
  2 15  1  6
  3 16  1  0
  3 17  1  0
  7 18  1  0
  8 19  1  0
  9 20  1  0
M  CHG  1   3   1
M  END
>  <PARENT_COMPOUND>  (1) 
26DCMB

>  <PREPARED_SMILES>  (1) 
C[C@@H]([NH3+])c1c(Cl)cccc1Cl

$$$$
