26DCMB_S
     RDKit          3D

 20 20  0  0  0  0  0  0  0  0999 V2000
   -2.1235    0.5136    1.0411 C   0  0  0  0  0  0  0  0  0  0  0  0
   -1.3785    0.5791   -0.2894 C   0  0  2  0  0  0  0  0  0  0  0  0
   -2.1603   -0.1969   -1.2960 N   0  0  0  0  0  0  0  0  0  0  0  0
    0.0752    0.1633   -0.1601 C   0  0  0  0  0  0  0  0  0  0  0  0
    0.4850   -1.1857   -0.0901 C   0  0  0  0  0  0  0  0  0  0  0  0
   -0.6428   -2.4953   -0.1836 Cl  0  0  0  0  0  0  0  0  0  0  0  0
    1.8324   -1.5354    0.0548 C   0  0  0  0  0  0  0  0  0  0  0  0
    2.8065   -0.5482    0.1469 C   0  0  0  0  0  0  0  0  0  0  0  0
    2.4332    0.7899    0.1015 C   0  0  0  0  0  0  0  0  0  0  0  0
    1.0867    1.1427   -0.0428 C   0  0  0  0  0  0  0  0  0  0  0  0
    0.7311    2.8349   -0.0587 Cl  0  0  0  0  0  0  0  0  0  0  0  0
   -3.1545    0.8672    0.9282 H   0  0  0  0  0  0  0  0  0  0  0  0
   -1.6364    1.1461    1.7917 H   0  0  0  0  0  0  0  0  0  0  0  0
   -2.1635   -0.5032    1.4453 H   0  0  0  0  0  0  0  0  0  0  0  0
   -1.4585    1.5978   -0.6757 H   0  0  0  0  0  0  0  0  0  0  0  0
   -1.7309   -0.1308   -2.2272 H   0  0  0  0  0  0  0  0  0  0  0  0
   -2.1928   -1.1958   -1.0449 H   0  0  0  0  0  0  0  0  0  0  0  0
    2.1355   -2.5810    0.1055 H   0  0  0  0  0  0  0  0  0  0  0  0
    3.8544   -0.8200    0.2649 H   0  0  0  0  0  0  0  0  0  0  0  0
    3.2017    1.5578    0.1886 H   0  0  0  0  0  0  0  0  0  0  0  0
  1  2  1  0
  2  3  1  0
  2  4  1  0
  4  5  2  0
  5  6  1  0
  5  7  1  0
  7  8  2  0
  8  9  1  0
  9 10  2  0
 10 11  1  0
 10  4  1  0
  1 12  1  0
  1 13  1  0
  1 14  1  0
  2 15  1  6
  3 16  1  0
  3 17  1  0
  7 18  1  0
  8 19  1  0
  9 20  1  0
M  CHG  1   3   1
M  END
>  <PARENT_COMPOUND>  (1) 
26DCMB

>  <PREPARED_SMILES>  (1) 
C[C@H]([NH3+])c1c(Cl)cccc1Cl

$$$$
