2CLBA
     RDKit          3D

 17 17  0  0  0  0  0  0  0  0999 V2000
   -2.6804    0.3690   -0.3564 N   0  0  0  0  0  0  0  0  0  0  0  0
   -1.7222    0.3807    0.7749 C   0  0  0  0  0  0  0  0  0  0  0  0
   -0.3122    0.0841    0.3490 C   0  0  0  0  0  0  0  0  0  0  0  0
    0.3278   -1.0735    0.8241 C   0  0  0  0  0  0  0  0  0  0  0  0
    1.6395   -1.3663    0.4451 C   0  0  0  0  0  0  0  0  0  0  0  0
    2.3307   -0.5102   -0.4087 C   0  0  0  0  0  0  0  0  0  0  0  0
    1.7133    0.6431   -0.8876 C   0  0  0  0  0  0  0  0  0  0  0  0
    0.4026    0.9379   -0.5104 C   0  0  0  0  0  0  0  0  0  0  0  0
   -0.3296    2.3637   -1.1547 Cl  0  0  0  0  0  0  0  0  0  0  0  0
   -2.4617    1.1391   -1.0047 H   0  0  0  0  0  0  0  0  0  0  0  0
   -2.6001   -0.5057   -0.8894 H   0  0  0  0  0  0  0  0  0  0  0  0
   -2.0927   -0.3662    1.4844 H   0  0  0  0  0  0  0  0  0  0  0  0
   -1.7955    1.3621    1.2548 H   0  0  0  0  0  0  0  0  0  0  0  0
   -0.1732   -1.7619    1.5050 H   0  0  0  0  0  0  0  0  0  0  0  0
    2.1319   -2.2620    0.8229 H   0  0  0  0  0  0  0  0  0  0  0  0
    3.3556   -0.7396   -0.6969 H   0  0  0  0  0  0  0  0  0  0  0  0
    2.2662    1.3055   -1.5516 H   0  0  0  0  0  0  0  0  0  0  0  0
  1  2  1  0
  2  3  1  0
  3  4  2  0
  4  5  1  0
  5  6  2  0
  6  7  1  0
  7  8  2  0
  8  9  1  0
  8  3  1  0
  1 10  1  0
  1 11  1  0
  2 12  1  0
  2 13  1  0
  4 14  1  0
  5 15  1  0
  6 16  1  0
  7 17  1  0
M  CHG  1   1   1
M  END
>  <PARENT_COMPOUND>  (1) 
2CLBA

>  <PREPARED_SMILES>  (1) 
[NH3+]Cc1ccccc1Cl

$$$$
