34DCMB_S
     RDKit          3D

 20 20  0  0  0  0  0  0  0  0999 V2000
   -2.3405   -0.5977    0.6551 C   0  0  0  0  0  0  0  0  0  0  0  0
   -1.4055    0.5228    0.2064 C   0  0  2  0  0  0  0  0  0  0  0  0
   -1.8904    1.0186   -1.1112 N   0  0  0  0  0  0  0  0  0  0  0  0
    0.0663    0.1705    0.1227 C   0  0  0  0  0  0  0  0  0  0  0  0
    0.5386   -1.1461    0.0104 C   0  0  0  0  0  0  0  0  0  0  0  0
    1.9115   -1.4077   -0.0871 C   0  0  0  0  0  0  0  0  0  0  0  0
    2.8397   -0.3638   -0.0811 C   0  0  0  0  0  0  0  0  0  0  0  0
    4.5108   -0.7677   -0.2117 Cl  0  0  0  0  0  0  0  0  0  0  0  0
    2.3889    0.9521    0.0236 C   0  0  0  0  0  0  0  0  0  0  0  0
    3.4595    2.3056    0.0292 Cl  0  0  0  0  0  0  0  0  0  0  0  0
    1.0141    1.2138    0.1226 C   0  0  0  0  0  0  0  0  0  0  0  0
   -2.0233   -1.0100    1.6192 H   0  0  0  0  0  0  0  0  0  0  0  0
   -3.3631   -0.2225    0.7764 H   0  0  0  0  0  0  0  0  0  0  0  0
   -2.3776   -1.4183   -0.0701 H   0  0  0  0  0  0  0  0  0  0  0  0
   -1.5281    1.3630    0.9005 H   0  0  0  0  0  0  0  0  0  0  0  0
   -1.7267    0.3287   -1.8554 H   0  0  0  0  0  0  0  0  0  0  0  0
   -2.8914    1.2494   -1.0967 H   0  0  0  0  0  0  0  0  0  0  0  0
   -0.1316   -2.0046    0.0060 H   0  0  0  0  0  0  0  0  0  0  0  0
    2.2572   -2.4385   -0.1649 H   0  0  0  0  0  0  0  0  0  0  0  0
    0.6916    2.2524    0.2063 H   0  0  0  0  0  0  0  0  0  0  0  0
  1  2  1  0
  2  3  1  0
  2  4  1  0
  4  5  1  0
  5  6  2  0
  6  7  1  0
  7  8  1  0
  7  9  2  0
  9 10  1  0
  9 11  1  0
 11  4  2  0
  1 12  1  0
  1 13  1  0
  1 14  1  0
  2 15  1  1
  3 16  1  0
  3 17  1  0
  5 18  1  0
  6 19  1  0
 11 20  1  0
M  CHG  1   3   1
M  END
>  <PARENT_COMPOUND>  (1) 
34DCMB

>  <PREPARED_SMILES>  (1) 
C[C@H]([NH3+])c1ccc(Cl)c(Cl)c1

$$$$
