34DCMB_R
     RDKit          3D

 20 20  0  0  0  0  0  0  0  0999 V2000
   -2.2902   -0.1360    0.9243 C   0  0  0  0  0  0  0  0  0  0  0  0
   -1.4724   -0.1691   -0.3645 C   0  0  1  0  0  0  0  0  0  0  0  0
   -1.8701    1.0011   -1.1931 N   0  0  0  0  0  0  0  0  0  0  0  0
    0.0317   -0.1993   -0.1854 C   0  0  0  0  0  0  0  0  0  0  0  0
    0.8263   -0.8220   -1.1640 C   0  0  0  0  0  0  0  0  0  0  0  0
    2.2209   -0.8478   -1.0493 C   0  0  0  0  0  0  0  0  0  0  0  0
    2.8536   -0.2456    0.0397 C   0  0  0  0  0  0  0  0  0  0  0  0
    4.5750   -0.3102    0.1117 Cl  0  0  0  0  0  0  0  0  0  0  0  0
    2.0820    0.3858    1.0166 C   0  0  0  0  0  0  0  0  0  0  0  0
    2.7788    1.1680    2.3891 Cl  0  0  0  0  0  0  0  0  0  0  0  0
    0.6822    0.4107    0.9018 C   0  0  0  0  0  0  0  0  0  0  0  0
   -2.1553    0.8002    1.4771 H   0  0  0  0  0  0  0  0  0  0  0  0
   -3.3596   -0.2325    0.7047 H   0  0  0  0  0  0  0  0  0  0  0  0
   -2.0114   -0.9637    1.5857 H   0  0  0  0  0  0  0  0  0  0  0  0
   -1.7827   -1.0515   -0.9368 H   0  0  0  0  0  0  0  0  0  0  0  0
   -1.5331    1.8832   -0.7873 H   0  0  0  0  0  0  0  0  0  0  0  0
   -2.8886    1.0667   -1.3103 H   0  0  0  0  0  0  0  0  0  0  0  0
    0.3773   -1.3062   -2.0322 H   0  0  0  0  0  0  0  0  0  0  0  0
    2.8145   -1.3432   -1.8171 H   0  0  0  0  0  0  0  0  0  0  0  0
    0.1212    0.9115    1.6893 H   0  0  0  0  0  0  0  0  0  0  0  0
  1  2  1  0
  2  3  1  0
  2  4  1  0
  4  5  1  0
  5  6  2  0
  6  7  1  0
  7  8  1  0
  7  9  2  0
  9 10  1  0
  9 11  1  0
 11  4  2  0
  1 12  1  0
  1 13  1  0
  1 14  1  0
  2 15  1  6
  3 16  1  0
  3 17  1  0
  5 18  1  0
  6 19  1  0
 11 20  1  0
M  CHG  1   3   1
M  END
>  <PARENT_COMPOUND>  (1) 
34DCMB

>  <PREPARED_SMILES>  (1) 
C[C@@H]([NH3+])c1ccc(Cl)c(Cl)c1

$$$$
