3CLBA
     RDKit          3D

 17 17  0  0  0  0  0  0  0  0999 V2000
   -2.5744   -0.2011    0.7062 N   0  0  0  0  0  0  0  0  0  0  0  0
   -1.8145    0.1868   -0.5029 C   0  0  0  0  0  0  0  0  0  0  0  0
   -0.3362    0.0320   -0.2976 C   0  0  0  0  0  0  0  0  0  0  0  0
    0.2541   -1.2422   -0.3011 C   0  0  0  0  0  0  0  0  0  0  0  0
    1.6259   -1.3891   -0.0821 C   0  0  0  0  0  0  0  0  0  0  0  0
    2.4232   -0.2685    0.1472 C   0  0  0  0  0  0  0  0  0  0  0  0
    1.8464    0.9974    0.1547 C   0  0  0  0  0  0  0  0  0  0  0  0
    2.8202    2.3839    0.4426 Cl  0  0  0  0  0  0  0  0  0  0  0  0
    0.4755    1.1538   -0.0640 C   0  0  0  0  0  0  0  0  0  0  0  0
   -2.1927    0.2617    1.5409 H   0  0  0  0  0  0  0  0  0  0  0  0
   -3.5654    0.0540    0.6244 H   0  0  0  0  0  0  0  0  0  0  0  0
   -2.0845    1.2242   -0.7259 H   0  0  0  0  0  0  0  0  0  0  0  0
   -2.1701   -0.4452   -1.3228 H   0  0  0  0  0  0  0  0  0  0  0  0
   -0.3386   -2.1390   -0.4816 H   0  0  0  0  0  0  0  0  0  0  0  0
    2.0801   -2.3790   -0.0933 H   0  0  0  0  0  0  0  0  0  0  0  0
    3.4916   -0.3897    0.3148 H   0  0  0  0  0  0  0  0  0  0  0  0
    0.0593    2.1600   -0.0594 H   0  0  0  0  0  0  0  0  0  0  0  0
  1  2  1  0
  2  3  1  0
  3  4  2  0
  4  5  1  0
  5  6  2  0
  6  7  1  0
  7  8  1  0
  7  9  2  0
  9  3  1  0
  1 10  1  0
  1 11  1  0
  2 12  1  0
  2 13  1  0
  4 14  1  0
  5 15  1  0
  6 16  1  0
  9 17  1  0
M  CHG  1   1   1
M  END
>  <PARENT_COMPOUND>  (1) 
3CLBA

>  <PREPARED_SMILES>  (1) 
[NH3+]Cc1cccc(Cl)c1

$$$$
