4CLBA
     RDKit          3D

 17 17  0  0  0  0  0  0  0  0999 V2000
    2.7102    0.3780    0.0123 N   0  0  0  0  0  0  0  0  0  0  0  0
    1.7720   -0.4960    0.7528 C   0  0  0  0  0  0  0  0  0  0  0  0
    0.3537   -0.2646    0.3162 C   0  0  0  0  0  0  0  0  0  0  0  0
   -0.4343    0.7144    0.9436 C   0  0  0  0  0  0  0  0  0  0  0  0
   -1.7398    0.9576    0.5075 C   0  0  0  0  0  0  0  0  0  0  0  0
   -2.2653    0.2298   -0.5572 C   0  0  0  0  0  0  0  0  0  0  0  0
   -3.8684    0.5342   -1.0936 Cl  0  0  0  0  0  0  0  0  0  0  0  0
   -1.4950   -0.7430   -1.1894 C   0  0  0  0  0  0  0  0  0  0  0  0
   -0.1888   -0.9901   -0.7572 C   0  0  0  0  0  0  0  0  0  0  0  0
    2.4686    1.3657    0.1607 H   0  0  0  0  0  0  0  0  0  0  0  0
    2.6358    0.2046   -0.9978 H   0  0  0  0  0  0  0  0  0  0  0  0
    2.0863   -1.5287    0.5709 H   0  0  0  0  0  0  0  0  0  0  0  0
    1.9065   -0.2795    1.8174 H   0  0  0  0  0  0  0  0  0  0  0  0
   -0.0601    1.2916    1.7889 H   0  0  0  0  0  0  0  0  0  0  0  0
   -2.3489    1.7107    1.0051 H   0  0  0  0  0  0  0  0  0  0  0  0
   -1.9130   -1.3163   -2.0154 H   0  0  0  0  0  0  0  0  0  0  0  0
    0.3806   -1.7686   -1.2646 H   0  0  0  0  0  0  0  0  0  0  0  0
  1  2  1  0
  2  3  1  0
  3  4  1  0
  4  5  2  0
  5  6  1  0
  6  7  1  0
  6  8  2  0
  8  9  1  0
  9  3  2  0
  1 10  1  0
  1 11  1  0
  2 12  1  0
  2 13  1  0
  4 14  1  0
  5 15  1  0
  8 16  1  0
  9 17  1  0
M  CHG  1   1   1
M  END
>  <PARENT_COMPOUND>  (1) 
4CLBA

>  <PREPARED_SMILES>  (1) 
[NH3+]Cc1ccc(Cl)cc1

$$$$
