AMBA_R
     RDKit          3D

 20 20  0  0  0  0  0  0  0  0999 V2000
   -2.4987   -0.1699   -0.2554 C   0  0  0  0  0  0  0  0  0  0  0  0
   -1.3631    0.4690    0.5369 C   0  0  1  0  0  0  0  0  0  0  0  0
   -1.4497   -0.0205    1.9403 N   0  0  0  0  0  0  0  0  0  0  0  0
    0.0235    0.2219   -0.0088 C   0  0  0  0  0  0  0  0  0  0  0  0
    0.9689    1.2629    0.0183 C   0  0  0  0  0  0  0  0  0  0  0  0
    2.2738    1.0520   -0.4298 C   0  0  0  0  0  0  0  0  0  0  0  0
    2.6547   -0.1989   -0.9054 C   0  0  0  0  0  0  0  0  0  0  0  0
    1.7322   -1.2408   -0.9370 C   0  0  0  0  0  0  0  0  0  0  0  0
    0.4253   -1.0360   -0.4898 C   0  0  0  0  0  0  0  0  0  0  0  0
   -2.4648    0.1427   -1.3048 H   0  0  0  0  0  0  0  0  0  0  0  0
   -2.4620   -1.2644   -0.2296 H   0  0  0  0  0  0  0  0  0  0  0  0
   -3.4700    0.1332    0.1519 H   0  0  0  0  0  0  0  0  0  0  0  0
   -1.5532    1.5473    0.5926 H   0  0  0  0  0  0  0  0  0  0  0  0
   -1.2280   -1.0232    1.9786 H   0  0  0  0  0  0  0  0  0  0  0  0
   -0.7395    0.4527    2.5132 H   0  0  0  0  0  0  0  0  0  0  0  0
    0.7078    2.2598    0.3728 H   0  0  0  0  0  0  0  0  0  0  0  0
    2.9971    1.8661   -0.4177 H   0  0  0  0  0  0  0  0  0  0  0  0
    3.6707   -0.3598   -1.2620 H   0  0  0  0  0  0  0  0  0  0  0  0
    2.0351   -2.2139   -1.3209 H   0  0  0  0  0  0  0  0  0  0  0  0
   -0.2601   -1.8800   -0.5435 H   0  0  0  0  0  0  0  0  0  0  0  0
  1  2  1  0
  2  3  1  0
  2  4  1  0
  4  5  2  0
  5  6  1  0
  6  7  2  0
  7  8  1  0
  8  9  2  0
  9  4  1  0
  1 10  1  0
  1 11  1  0
  1 12  1  0
  2 13  1  1
  3 14  1  0
  3 15  1  0
  5 16  1  0
  6 17  1  0
  7 18  1  0
  8 19  1  0
  9 20  1  0
M  CHG  1   3   1
M  END
>  <PARENT_COMPOUND>  (1) 
AMBA

>  <PREPARED_SMILES>  (1) 
C[C@@H]([NH3+])c1ccccc1

$$$$
