AMBA_S
     RDKit          3D

 20 20  0  0  0  0  0  0  0  0999 V2000
   -2.4175   -0.0261   -0.7021 C   0  0  0  0  0  0  0  0  0  0  0  0
   -1.4366   -0.3579    0.4174 C   0  0  2  0  0  0  0  0  0  0  0  0
   -1.7604    0.5088    1.5838 N   0  0  0  0  0  0  0  0  0  0  0  0
    0.0239   -0.2138    0.0600 C   0  0  0  0  0  0  0  0  0  0  0  0
    0.5067    0.8707   -0.6923 C   0  0  0  0  0  0  0  0  0  0  0  0
    1.8717    0.9988   -0.9577 C   0  0  0  0  0  0  0  0  0  0  0  0
    2.7712    0.0536   -0.4734 C   0  0  0  0  0  0  0  0  0  0  0  0
    2.3099   -1.0248    0.2754 C   0  0  0  0  0  0  0  0  0  0  0  0
    0.9468   -1.1584    0.5437 C   0  0  0  0  0  0  0  0  0  0  0  0
   -2.2055   -0.6245   -1.5950 H   0  0  0  0  0  0  0  0  0  0  0  0
   -3.4452   -0.2443   -0.3905 H   0  0  0  0  0  0  0  0  0  0  0  0
   -2.3817    1.0302   -0.9895 H   0  0  0  0  0  0  0  0  0  0  0  0
   -1.6374   -1.3826    0.7517 H   0  0  0  0  0  0  0  0  0  0  0  0
   -1.1606    0.2530    2.3784 H   0  0  0  0  0  0  0  0  0  0  0  0
   -1.5449    1.4895    1.3655 H   0  0  0  0  0  0  0  0  0  0  0  0
   -0.1562    1.6313   -1.1010 H   0  0  0  0  0  0  0  0  0  0  0  0
    2.2394    1.8340   -1.5522 H   0  0  0  0  0  0  0  0  0  0  0  0
    3.8339    0.1523   -0.6886 H   0  0  0  0  0  0  0  0  0  0  0  0
    3.0174   -1.7668    0.6424 H   0  0  0  0  0  0  0  0  0  0  0  0
    0.6251   -2.0228    1.1242 H   0  0  0  0  0  0  0  0  0  0  0  0
  1  2  1  0
  2  3  1  0
  2  4  1  0
  4  5  2  0
  5  6  1  0
  6  7  2  0
  7  8  1  0
  8  9  2  0
  9  4  1  0
  1 10  1  0
  1 11  1  0
  1 12  1  0
  2 13  1  1
  3 14  1  0
  3 15  1  0
  5 16  1  0
  6 17  1  0
  7 18  1  0
  8 19  1  0
  9 20  1  0
M  CHG  1   3   1
M  END
>  <PARENT_COMPOUND>  (1) 
AMBA

>  <PREPARED_SMILES>  (1) 
C[C@H]([NH3+])c1ccccc1

$$$$
