BA
     RDKit          3D

 17 17  0  0  0  0  0  0  0  0999 V2000
    2.6503   -0.3361    0.3420 N   0  0  0  0  0  0  0  0  0  0  0  0
    1.7735   -0.0464   -0.8160 C   0  0  0  0  0  0  0  0  0  0  0  0
    0.3375    0.0316   -0.3918 C   0  0  0  0  0  0  0  0  0  0  0  0
   -0.2109    1.2494    0.0406 C   0  0  0  0  0  0  0  0  0  0  0  0
   -1.5316    1.3078    0.4869 C   0  0  0  0  0  0  0  0  0  0  0  0
   -2.3132    0.1553    0.5097 C   0  0  0  0  0  0  0  0  0  0  0  0
   -1.7795   -1.0582    0.0827 C   0  0  0  0  0  0  0  0  0  0  0  0
   -0.4596   -1.1237   -0.3649 C   0  0  0  0  0  0  0  0  0  0  0  0
    2.5339    0.3929    1.0568 H   0  0  0  0  0  0  0  0  0  0  0  0
    2.3649   -1.2202    0.7813 H   0  0  0  0  0  0  0  0  0  0  0  0
    1.9371   -0.8433   -1.5484 H   0  0  0  0  0  0  0  0  0  0  0  0
    2.1194    0.8965   -1.2512 H   0  0  0  0  0  0  0  0  0  0  0  0
    0.3668    2.1727    0.0235 H   0  0  0  0  0  0  0  0  0  0  0  0
   -1.9611    2.2548    0.8104 H   0  0  0  0  0  0  0  0  0  0  0  0
   -3.3460    0.2052    0.8509 H   0  0  0  0  0  0  0  0  0  0  0  0
   -2.4019   -1.9518    0.0918 H   0  0  0  0  0  0  0  0  0  0  0  0
   -0.0795   -2.0866   -0.7042 H   0  0  0  0  0  0  0  0  0  0  0  0
  1  2  1  0
  2  3  1  0
  3  4  2  0
  4  5  1  0
  5  6  2  0
  6  7  1  0
  7  8  2  0
  8  3  1  0
  1  9  1  0
  1 10  1  0
  2 11  1  0
  2 12  1  0
  4 13  1  0
  5 14  1  0
  6 15  1  0
  7 16  1  0
  8 17  1  0
M  CHG  1   1   1
M  END
>  <PARENT_COMPOUND>  (1) 
BA

>  <PREPARED_SMILES>  (1) 
[NH3+]Cc1ccccc1

$$$$
