DCMB_R
     RDKit          3D

 20 20  0  0  0  0  0  0  0  0999 V2000
   -2.0571   -0.0828   -1.2304 C   0  0  0  0  0  0  0  0  0  0  0  0
   -1.4606    0.2463    0.1340 C   0  0  1  0  0  0  0  0  0  0  0  0
   -2.0843   -0.6684    1.1368 N   0  0  0  0  0  0  0  0  0  0  0  0
    0.0516    0.1367    0.1299 C   0  0  0  0  0  0  0  0  0  0  0  0
    0.6586   -1.1372    0.1291 C   0  0  0  0  0  0  0  0  0  0  0  0
    2.0471   -1.2725    0.1127 C   0  0  0  0  0  0  0  0  0  0  0  0
    2.8583   -0.1418    0.0881 C   0  0  0  0  0  0  0  0  0  0  0  0
    2.2862    1.1308    0.0711 C   0  0  0  0  0  0  0  0  0  0  0  0
    3.3610    2.4832    0.0339 Cl  0  0  0  0  0  0  0  0  0  0  0  0
    0.8876    1.2765    0.0859 C   0  0  0  0  0  0  0  0  0  0  0  0
    0.1794    2.8607    0.0463 Cl  0  0  0  0  0  0  0  0  0  0  0  0
   -1.6605    0.5877   -2.0009 H   0  0  0  0  0  0  0  0  0  0  0  0
   -3.1467    0.0317   -1.2189 H   0  0  0  0  0  0  0  0  0  0  0  0
   -1.8328   -1.1106   -1.5381 H   0  0  0  0  0  0  0  0  0  0  0  0
   -1.8001    1.2354    0.4489 H   0  0  0  0  0  0  0  0  0  0  0  0
   -1.6961   -0.4886    2.0721 H   0  0  0  0  0  0  0  0  0  0  0  0
   -3.0993   -0.5154    1.1939 H   0  0  0  0  0  0  0  0  0  0  0  0
    0.0630   -2.0507    0.1242 H   0  0  0  0  0  0  0  0  0  0  0  0
    2.5036   -2.2620    0.1091 H   0  0  0  0  0  0  0  0  0  0  0  0
    3.9412   -0.2588    0.0724 H   0  0  0  0  0  0  0  0  0  0  0  0
  1  2  1  0
  2  3  1  0
  2  4  1  0
  4  5  2  0
  5  6  1  0
  6  7  2  0
  7  8  1  0
  8  9  1  0
  8 10  2  0
 10 11  1  0
 10  4  1  0
  1 12  1  0
  1 13  1  0
  1 14  1  0
  2 15  1  1
  3 16  1  0
  3 17  1  0
  5 18  1  0
  6 19  1  0
  7 20  1  0
M  CHG  1   3   1
M  END
>  <PARENT_COMPOUND>  (1) 
DCMB

>  <PREPARED_SMILES>  (1) 
C[C@@H]([NH3+])c1cccc(Cl)c1Cl

$$$$
