DCMB_S
     RDKit          3D

 20 20  0  0  0  0  0  0  0  0999 V2000
   -2.0327   -0.0755   -1.3079 C   0  0  0  0  0  0  0  0  0  0  0  0
   -1.4554   -0.2551    0.0925 C   0  0  2  0  0  0  0  0  0  0  0  0
   -2.1644    0.6613    1.0229 N   0  0  0  0  0  0  0  0  0  0  0  0
    0.0555   -0.1286    0.1365 C   0  0  0  0  0  0  0  0  0  0  0  0
    0.8058   -1.3175    0.2623 C   0  0  0  0  0  0  0  0  0  0  0  0
    2.2004   -1.2933    0.2923 C   0  0  0  0  0  0  0  0  0  0  0  0
    2.8786   -0.0830    0.1925 C   0  0  0  0  0  0  0  0  0  0  0  0
    2.1658    1.1089    0.0593 C   0  0  0  0  0  0  0  0  0  0  0  0
    3.0831    2.5697   -0.0541 Cl  0  0  0  0  0  0  0  0  0  0  0  0
    0.7586    1.0942    0.0274 C   0  0  0  0  0  0  0  0  0  0  0  0
   -0.1107    2.5887   -0.1307 Cl  0  0  0  0  0  0  0  0  0  0  0  0
   -1.8698    0.9312   -1.7042 H   0  0  0  0  0  0  0  0  0  0  0  0
   -3.1129   -0.2601   -1.3096 H   0  0  0  0  0  0  0  0  0  0  0  0
   -1.5750   -0.7823   -2.0091 H   0  0  0  0  0  0  0  0  0  0  0  0
   -1.7369   -1.2536    0.4488 H   0  0  0  0  0  0  0  0  0  0  0  0
   -1.7705    0.6234    1.9709 H   0  0  0  0  0  0  0  0  0  0  0  0
   -3.1695    0.4589    1.0811 H   0  0  0  0  0  0  0  0  0  0  0  0
    0.3181   -2.2913    0.3282 H   0  0  0  0  0  0  0  0  0  0  0  0
    2.7646   -2.2209    0.3864 H   0  0  0  0  0  0  0  0  0  0  0  0
    3.9675   -0.0749    0.2144 H   0  0  0  0  0  0  0  0  0  0  0  0
  1  2  1  0
  2  3  1  0
  2  4  1  0
  4  5  2  0
  5  6  1  0
  6  7  2  0
  7  8  1  0
  8  9  1  0
  8 10  2  0
 10 11  1  0
 10  4  1  0
  1 12  1  0
  1 13  1  0
  1 14  1  0
  2 15  1  1
  3 16  1  0
  3 17  1  0
  5 18  1  0
  6 19  1  0
  7 20  1  0
M  CHG  1   3   1
M  END
>  <PARENT_COMPOUND>  (1) 
DCMB

>  <PREPARED_SMILES>  (1) 
C[C@H]([NH3+])c1cccc(Cl)c1Cl

$$$$
