SKF64139
     RDKit          3D

 22 23  0  0  0  0  0  0  0  0999 V2000
    1.4695    3.1765   -0.3059 Cl  0  0  0  0  0  0  0  0  0  0  0  0
    1.4860    1.4504   -0.3395 C   0  0  0  0  0  0  0  0  0  0  0  0
    2.6971    0.8127   -0.6092 C   0  0  0  0  0  0  0  0  0  0  0  0
    2.7614   -0.5780   -0.6325 C   0  0  0  0  0  0  0  0  0  0  0  0
    1.6189   -1.3338   -0.3771 C   0  0  0  0  0  0  0  0  0  0  0  0
    0.3975   -0.7055   -0.0925 C   0  0  0  0  0  0  0  0  0  0  0  0
   -0.8215   -1.5612    0.1628 C   0  0  0  0  0  0  0  0  0  0  0  0
   -1.9426   -0.7952    0.8589 C   0  0  0  0  0  0  0  0  0  0  0  0
   -2.1701    0.4953    0.1452 N   0  0  0  0  0  0  0  0  0  0  0  0
   -0.9800    1.4009    0.2126 C   0  0  0  0  0  0  0  0  0  0  0  0
    0.3177    0.7053   -0.0963 C   0  0  0  0  0  0  0  0  0  0  0  0
    3.5985    1.3920   -0.8014 H   0  0  0  0  0  0  0  0  0  0  0  0
    3.7069   -1.0737   -0.8468 H   0  0  0  0  0  0  0  0  0  0  0  0
    1.6950   -2.4209   -0.3994 H   0  0  0  0  0  0  0  0  0  0  0  0
   -0.5509   -2.4259    0.7799 H   0  0  0  0  0  0  0  0  0  0  0  0
   -1.1801   -1.9393   -0.8028 H   0  0  0  0  0  0  0  0  0  0  0  0
   -1.6985   -0.5530    1.8991 H   0  0  0  0  0  0  0  0  0  0  0  0
   -2.8838   -1.3522    0.8307 H   0  0  0  0  0  0  0  0  0  0  0  0
   -2.9868    0.9826    0.5344 H   0  0  0  0  0  0  0  0  0  0  0  0
   -2.3843    0.3125   -0.8440 H   0  0  0  0  0  0  0  0  0  0  0  0
   -1.1913    2.2000   -0.5045 H   0  0  0  0  0  0  0  0  0  0  0  0
   -0.9586    1.8104    1.2284 H   0  0  0  0  0  0  0  0  0  0  0  0
  1  2  1  0
  2  3  1  0
  3  4  2  0
  4  5  1  0
  5  6  2  0
  6  7  1  0
  7  8  1  0
  8  9  1  0
  9 10  1  0
 10 11  1  0
 11  2  2  0
 11  6  1  0
  3 12  1  0
  4 13  1  0
  5 14  1  0
  7 15  1  0
  7 16  1  0
  8 17  1  0
  8 18  1  0
  9 19  1  0
  9 20  1  0
 10 21  1  0
 10 22  1  0
M  CHG  1   9   1
M  END
>  <PARENT_COMPOUND>  (1) 
SKF64139

>  <PREPARED_SMILES>  (1) 
Clc1cccc2c1C[NH2+]CC2

$$$$
