66599893
     RDKit          3D

 62 65  0  0  1  0  0  0  0  0999 V2000
   14.0600   -3.8470    0.8750 O   0  0  0  0  0  0  0  0  0  0  0  0
   13.0220   -7.5120   -5.1170 O   0  0  0  0  0  0  0  0  0  0  0  0
   14.8320   -5.1480    2.6100 O   0  0  0  0  0  0  0  0  0  0  0  0
   10.9370   -8.5950   -5.0060 N   0  0  0  0  0  0  0  0  0  0  0  0
   10.8030  -10.5030   -2.7360 N   0  0  0  0  0  0  0  0  0  0  0  0
    7.5010   -8.2390  -10.4240 N   0  0  0  0  0  0  0  0  0  0  0  0
   12.4140   -8.6360   -3.0650 C   0  0  1  0  0  0  0  0  0  0  0  0
   13.0930   -7.5350   -2.2660 C   0  0  0  0  0  0  0  0  0  0  0  0
   11.0860   -9.1020   -2.4350 C   0  0  0  0  0  0  0  0  0  0  0  0
   12.1840   -8.1770   -4.5130 C   0  0  0  0  0  0  0  0  0  0  0  0
   14.4350   -7.6590   -1.9060 C   0  0  0  0  0  0  0  0  0  0  0  0
   12.3740   -6.3980   -1.8930 C   0  0  0  0  0  0  0  0  0  0  0  0
   14.3380   -5.5140   -0.8000 C   0  0  0  0  0  0  0  0  0  0  0  0
   15.0570   -6.6490   -1.1720 C   0  0  0  0  0  0  0  0  0  0  0  0
   12.9960   -5.3890   -1.1590 C   0  0  0  0  0  0  0  0  0  0  0  0
   10.3880   -8.3660   -6.2700 C   0  0  0  0  0  0  0  0  0  0  0  0
   15.0040   -4.4340   -0.0150 C   0  0  0  0  0  0  0  0  0  0  0  0
    9.1550   -8.9290   -6.6040 C   0  0  0  0  0  0  0  0  0  0  0  0
    8.5900   -8.7110   -7.8710 C   0  0  0  0  0  0  0  0  0  0  0  0
   11.0710   -7.5790   -7.1930 C   0  0  0  0  0  0  0  0  0  0  0  0
    9.2840   -7.9120   -8.8030 C   0  0  0  0  0  0  0  0  0  0  0  0
   10.5250   -7.3500   -8.4550 C   0  0  0  0  0  0  0  0  0  0  0  0
   12.8470   -3.8530    2.8780 C   0  0  0  0  0  0  0  0  0  0  0  0
   11.6220   -4.5200    2.8400 C   0  0  0  0  0  0  0  0  0  0  0  0
   14.0240   -4.3660    2.1320 C   0  0  0  0  0  0  0  0  0  0  0  0
    7.3550   -9.2610   -8.2370 C   0  0  0  0  0  0  0  0  0  0  0  0
   10.6660   -2.8460    4.2970 C   0  0  0  0  0  0  0  0  0  0  0  0
   10.5320   -4.0170    3.5490 C   0  0  0  0  0  0  0  0  0  0  0  0
   12.9810   -2.6820    3.6250 C   0  0  0  0  0  0  0  0  0  0  0  0
    8.6910   -7.7160  -10.0520 C   0  0  0  0  0  0  0  0  0  0  0  0
   11.8910   -2.1780    4.3340 C   0  0  0  0  0  0  0  0  0  0  0  0
   11.4520   -5.7760    2.0490 C   0  0  0  0  0  0  0  0  0  0  0  0
    6.8640   -8.9970   -9.5070 C   0  0  0  0  0  0  0  0  0  0  0  0
    9.5010   -2.3060    5.0540 C   0  0  0  0  0  0  0  0  0  0  0  0
   10.3541   -9.1387   -4.3536 H   0  0  0  0  0  0  0  0  0  0  0  0
   10.6969  -11.0285   -1.8565 H   0  0  0  0  0  0  0  0  0  0  0  0
    9.9319  -10.5677   -3.2819 H   0  0  0  0  0  0  0  0  0  0  0  0
   11.5806  -10.9008   -3.2819 H   0  0  0  0  0  0  0  0  0  0  0  0
   13.0922   -9.5020   -3.0549 H   0  0  0  0  0  0  0  0  0  0  0  0
   10.2680   -8.4812   -2.8294 H   0  0  0  0  0  0  0  0  0  0  0  0
   11.1714   -8.9981   -1.3432 H   0  0  0  0  0  0  0  0  0  0  0  0
   15.0030   -8.5536   -2.2011 H   0  0  0  0  0  0  0  0  0  0  0  0
   11.3163   -6.2982   -2.1783 H   0  0  0  0  0  0  0  0  0  0  0  0
   16.1147   -6.7481   -0.8867 H   0  0  0  0  0  0  0  0  0  0  0  0
   12.4285   -4.4944   -0.8630 H   0  0  0  0  0  0  0  0  0  0  0  0
   15.3890   -3.6653   -0.7012 H   0  0  0  0  0  0  0  0  0  0  0  0
   15.8384   -4.8595    0.5619 H   0  0  0  0  0  0  0  0  0  0  0  0
    8.6214   -9.5488   -5.8684 H   0  0  0  0  0  0  0  0  0  0  0  0
   12.0425   -7.1374   -6.9263 H   0  0  0  0  0  0  0  0  0  0  0  0
   11.0672   -6.7271   -9.1816 H   0  0  0  0  0  0  0  0  0  0  0  0
    6.7875   -9.8879   -7.5334 H   0  0  0  0  0  0  0  0  0  0  0  0
    9.5663   -4.5429    3.5190 H   0  0  0  0  0  0  0  0  0  0  0  0
   13.9468   -2.1563    3.6546 H   0  0  0  0  0  0  0  0  0  0  0  0
    9.2285   -7.0939  -10.7828 H   0  0  0  0  0  0  0  0  0  0  0  0
   11.9966   -1.2544    4.9221 H   0  0  0  0  0  0  0  0  0  0  0  0
   11.3366   -6.6284    2.7347 H   0  0  0  0  0  0  0  0  0  0  0  0
   10.5571   -5.6917    1.4150 H   0  0  0  0  0  0  0  0  0  0  0  0
   12.3371   -5.9327    1.4150 H   0  0  0  0  0  0  0  0  0  0  0  0
    5.8932   -9.4334   -9.7846 H   0  0  0  0  0  0  0  0  0  0  0  0
    9.6923   -2.3947    6.1336 H   0  0  0  0  0  0  0  0  0  0  0  0
    9.3532   -1.2476    4.7935 H   0  0  0  0  0  0  0  0  0  0  0  0
    8.5978   -2.8773    4.7935 H   0  0  0  0  0  0  0  0  0  0  0  0
  1 17  1  0
  1 25  1  0
  2 10  2  0
  3 25  2  0
  4 10  1  0
  4 16  1  0
  5  9  1  0
  6 30  1  0
  6 33  2  0
  7  8  1  0
  7  9  1  0
  7 10  1  0
  8 11  1  0
  8 12  2  0
 11 14  2  0
 12 15  1  0
 13 14  1  0
 13 15  2  0
 13 17  1  0
 16 18  2  0
 16 20  1  0
 18 19  1  0
 19 21  1  0
 19 26  2  0
 20 22  2  0
 21 22  1  0
 21 30  2  0
 23 24  2  0
 23 25  1  0
 23 29  1  0
 24 28  1  0
 24 32  1  0
 26 33  1  0
 27 28  2  0
 27 31  1  0
 27 34  1  0
 29 31  2  0
  4 35  1  0
  5 36  1  0
  5 37  1  0
  5 38  1  0
  7 39  1  6
  9 40  1  0
  9 41  1  0
 11 42  1  0
 12 43  1  0
 14 44  1  0
 15 45  1  0
 17 46  1  0
 17 47  1  0
 18 48  1  0
 20 49  1  0
 22 50  1  0
 26 51  1  0
 28 52  1  0
 29 53  1  0
 30 54  1  0
 31 55  1  0
 32 56  1  0
 32 57  1  0
 32 58  1  0
 33 59  1  0
 34 60  1  0
 34 61  1  0
 34 62  1  0
M  CHG  1   5   1
M  END
>  <PUBCHEM_COMPOUND_CID>  (1) 
66599893

>  <PUBCHEM_CONFORMER_RMSD>  (1) 
1.2

>  <PUBCHEM_CONFORMER_DIVERSEORDER>  (1) 
1
31
115
72
109
84
30
101
32
104
42
52
100
45
106
85
117
28
46
96
51
22
70
108
65
80
98
67
77
48
50
16
112
40
107
99
35
63
53
49
20
18
61
81
56
62
10
94
19
88
58
41
105
95
97
114
13
66
21
76
54
111
73
39
57
110
6
87
43
79
59
92
116
26
83
17
4
11
69
93
27
91
102
47
74
5
25
82
86
68
12
90
60
64
44
71
55
103
89
14
34
9
75
8
23
29
37
78
7
15
33
3
36
38
24
2
113

>  <PUBCHEM_MMFF94_PARTIAL_CHARGES>  (1) 
48
1 -0.43
10 0.57
11 -0.15
12 -0.15
13 -0.14
14 -0.15
15 -0.15
16 0.12
17 0.42
18 -0.15
2 -0.57
20 -0.15
22 -0.15
23 0.09
24 -0.14
25 0.63
26 -0.15
27 -0.14
28 -0.15
29 -0.15
3 -0.57
30 0.16
31 -0.15
32 0.14
33 0.16
34 0.14
38 0.15
39 0.15
4 -0.55
40 0.15
41 0.15
42 0.37
45 0.36
46 0.36
47 0.15
48 0.15
49 0.15
5 -0.99
50 0.15
51 0.15
52 0.15
53 0.15
54 0.15
58 0.15
6 -0.62
7 0.2
8 -0.14
9 0.27

>  <PUBCHEM_EFFECTIVE_ROTOR_COUNT>  (1) 
9

>  <PUBCHEM_PHARMACOPHORE_FEATURES>  (1) 
10
1 2 acceptor
1 3 acceptor
1 4 donor
1 5 cation
1 5 donor
1 6 acceptor
6 16 18 19 20 21 22 rings
6 23 24 27 28 29 31 rings
6 6 19 21 26 30 33 rings
6 8 11 12 13 14 15 rings

>  <PUBCHEM_HEAVY_ATOM_COUNT>  (1) 
34

>  <PUBCHEM_ATOM_DEF_STEREO_COUNT>  (1) 
1

>  <PUBCHEM_ATOM_UDEF_STEREO_COUNT>  (1) 
0

>  <PUBCHEM_BOND_DEF_STEREO_COUNT>  (1) 
0

>  <PUBCHEM_BOND_UDEF_STEREO_COUNT>  (1) 
0

>  <PUBCHEM_ISOTOPIC_ATOM_COUNT>  (1) 
0

>  <PUBCHEM_COMPONENT_COUNT>  (1) 
1

>  <PUBCHEM_CACTVS_TAUTO_COUNT>  (1) 
15

>  <PUBCHEM_CONFORMER_ID>  (1) 
03F83BD500000001

>  <PUBCHEM_MMFF94_ENERGY>  (1) 
103.1068

>  <PUBCHEM_FEATURE_SELFOVERLAP>  (1) 
50.774

>  <PUBCHEM_SHAPE_FINGERPRINT>  (1) 
10675989 125 18340488855213736712
10771551 21 18129105511328159840
11059845 2 18124001746672730826
11386260 185 17838048205024202911
11399510 152 17243039873197801475
11479125 193 18410577266955307073
12422481 6 17531238444267613038
12559415 180 18412261697289903496
12655364 74 17475515453177424412
12717326 150 8501494799734587513
14068700 686 18410582820538619295
14429114 114 18409449176699382961
14739800 52 18187357693355131699
15320291 9 18048869698062947669
15513586 35 16450103221084032926
15773879 134 18411694383211223271
16708801 149 18267007367927520129
16988056 13 18124033425972197350
16990350 14 18408602561409555822
19053607 189 18411407410839793328
19304671 126 17775019980735531604
20058555 10 18410575080885453113
20238998 120 17978790104786320338
20609170 109 16591688372717000705
21033648 29 18193847170191330750
21223535 225 18342455989364459052
21307412 95 9582702839656079987
21772524 286 17977943815877571568
21792938 324 17832117465601582994
22033318 11 17822559608605652160
23191077 185 18341039813281669046
23569914 2 17534871184053503517
2748736 6 18339633529371764016
2838139 119 18413102866191018047
376196 1 18409452457643726635
3918712 181 18335691772219049973
437795 171 18335696109624745005
44249763 50 17700687630515258440
5047190 47 17688578378479494309
50742298 180 17313682519835183673
508180 173 17901685773286994482
5219985 13 18340205314458346878
5223283 242 17266681460280851471
550186 72 18121218951009293847
6677587 24 17632290155998816348
9849439 229 18339358681925528746
9980921 52 11891911578896185121

>  <PUBCHEM_SHAPE_MULTIPOLES>  (1) 
667.15
19.71
8.4
1.68
7.45
1.44
0.19
-31.2
1.64
-4.53
-0.52
0.03
-0.84
3.8

>  <PUBCHEM_SHAPE_SELFOVERLAP>  (1) 
1452.426

>  <PUBCHEM_SHAPE_VOLUME>  (1) 
361.9

>  <PUBCHEM_COORDINATE_TYPE>  (1) 
2
5
10

$$$$
