branch_point_enantiomer
     RDKit          3D

 61 64  0  0  0  0  0  0  0  0999 V2000
    3.3941    2.5614    4.0917 C   0  0  0  0  0  0  0  0  0  0  0  0
    3.2453    2.0534    2.6871 C   0  0  0  0  0  0  0  0  0  0  0  0
    1.9910    2.0445    2.0703 C   0  0  0  0  0  0  0  0  0  0  0  0
    1.8604    1.5937    0.7575 C   0  0  0  0  0  0  0  0  0  0  0  0
    2.9834    1.1504    0.0450 C   0  0  0  0  0  0  0  0  0  0  0  0
    2.7374    0.6680   -1.3321 C   0  0  0  0  0  0  0  0  0  0  0  0
    2.0677    1.2781   -2.1492 O   0  0  0  0  0  0  0  0  0  0  0  0
    3.2715   -0.5697   -1.4688 O   0  0  0  0  0  0  0  0  0  0  0  0
    2.9041   -1.2619   -2.6714 C   0  0  0  0  0  0  0  0  0  0  0  0
    1.5240   -1.8524   -2.5222 C   0  0  0  0  0  0  0  0  0  0  0  0
    1.2323   -2.7113   -1.4568 C   0  0  0  0  0  0  0  0  0  0  0  0
   -0.0703   -3.1683   -1.2544 C   0  0  0  0  0  0  0  0  0  0  0  0
   -1.1134   -2.7784   -2.1127 C   0  0  0  0  0  0  0  0  0  0  0  0
   -2.5454   -3.1492   -1.7264 C   0  0  2  0  0  0  0  0  0  0  0  0
   -3.6619   -2.9246   -2.7713 C   0  0  0  0  0  0  0  0  0  0  0  0
   -3.4864   -3.6961   -4.0059 N   0  0  0  0  0  0  0  0  0  0  0  0
   -2.9815   -2.4077   -0.4448 C   0  0  0  0  0  0  0  0  0  0  0  0
   -3.6245   -2.9979    0.4210 O   0  0  0  0  0  0  0  0  0  0  0  0
   -2.6257   -1.0673   -0.4184 N   0  0  0  0  0  0  0  0  0  0  0  0
   -2.8033   -0.1370    0.6237 C   0  0  0  0  0  0  0  0  0  0  0  0
   -3.4350   -0.4262    1.8314 C   0  0  0  0  0  0  0  0  0  0  0  0
   -3.5303    0.5493    2.8301 C   0  0  0  0  0  0  0  0  0  0  0  0
   -2.9912    1.8313    2.6329 C   0  0  0  0  0  0  0  0  0  0  0  0
   -3.0441    2.8383    3.6002 C   0  0  0  0  0  0  0  0  0  0  0  0
   -2.5293    4.0805    3.4435 N   0  0  0  0  0  0  0  0  0  0  0  0
   -1.9366    4.3420    2.2609 C   0  0  0  0  0  0  0  0  0  0  0  0
   -1.8280    3.4210    1.2311 C   0  0  0  0  0  0  0  0  0  0  0  0
   -2.3605    2.1384    1.4143 C   0  0  0  0  0  0  0  0  0  0  0  0
   -2.2774    1.1479    0.4196 C   0  0  0  0  0  0  0  0  0  0  0  0
   -0.8013   -1.9719   -3.2155 C   0  0  0  0  0  0  0  0  0  0  0  0
    0.5025   -1.5105   -3.4147 C   0  0  0  0  0  0  0  0  0  0  0  0
    4.2604    1.1905    0.6320 C   0  0  0  0  0  0  0  0  0  0  0  0
    5.4989    0.7549   -0.0982 C   0  0  0  0  0  0  0  0  0  0  0  0
    4.3714    1.6373    1.9604 C   0  0  0  0  0  0  0  0  0  0  0  0
    4.2165    2.0525    4.6053 H   0  0  0  0  0  0  0  0  0  0  0  0
    2.4847    2.3763    4.6730 H   0  0  0  0  0  0  0  0  0  0  0  0
    3.5942    3.6372    4.0808 H   0  0  0  0  0  0  0  0  0  0  0  0
    1.1075    2.3797    2.6106 H   0  0  0  0  0  0  0  0  0  0  0  0
    0.8782    1.5764    0.2921 H   0  0  0  0  0  0  0  0  0  0  0  0
    2.9856   -0.5980   -3.5407 H   0  0  0  0  0  0  0  0  0  0  0  0
    3.6267   -2.0717   -2.8224 H   0  0  0  0  0  0  0  0  0  0  0  0
    2.0121   -2.9941   -0.7523 H   0  0  0  0  0  0  0  0  0  0  0  0
   -0.2755   -3.7974   -0.3892 H   0  0  0  0  0  0  0  0  0  0  0  0
   -2.5341   -4.2214   -1.4810 H   0  0  0  0  0  0  0  0  0  0  0  0
   -4.6277   -3.2045   -2.3318 H   0  0  0  0  0  0  0  0  0  0  0  0
   -3.7412   -1.8623   -3.0309 H   0  0  0  0  0  0  0  0  0  0  0  0
   -4.3218   -3.6055   -4.5840 H   0  0  0  0  0  0  0  0  0  0  0  0
   -3.4032   -4.6885   -3.7833 H   0  0  0  0  0  0  0  0  0  0  0  0
   -2.1086   -0.7244   -1.2207 H   0  0  0  0  0  0  0  0  0  0  0  0
   -3.8584   -1.4049    2.0346 H   0  0  0  0  0  0  0  0  0  0  0  0
   -4.0237    0.2956    3.7660 H   0  0  0  0  0  0  0  0  0  0  0  0
   -3.5171    2.6668    4.5638 H   0  0  0  0  0  0  0  0  0  0  0  0
   -1.5351    5.3462    2.1563 H   0  0  0  0  0  0  0  0  0  0  0  0
   -1.3342    3.7041    0.3072 H   0  0  0  0  0  0  0  0  0  0  0  0
   -1.7825    1.3856   -0.5203 H   0  0  0  0  0  0  0  0  0  0  0  0
   -1.5673   -1.6612   -3.9224 H   0  0  0  0  0  0  0  0  0  0  0  0
    0.7062   -0.8478   -4.2540 H   0  0  0  0  0  0  0  0  0  0  0  0
    6.3982    1.1765    0.3640 H   0  0  0  0  0  0  0  0  0  0  0  0
    5.4861    1.1037   -1.1359 H   0  0  0  0  0  0  0  0  0  0  0  0
    5.5856   -0.3357   -0.0795 H   0  0  0  0  0  0  0  0  0  0  0  0
    5.3503    1.6661    2.4376 H   0  0  0  0  0  0  0  0  0  0  0  0
  1  2  1  0
  2  3  1  0
  3  4  2  0
  4  5  1  0
  5  6  1  0
  6  7  2  0
  6  8  1  0
  8  9  1  0
  9 10  1  0
 10 11  1  0
 11 12  2  0
 12 13  1  0
 13 14  1  0
 14 15  1  0
 15 16  1  0
 14 17  1  0
 17 18  2  0
 17 19  1  0
 19 20  1  0
 20 21  1  0
 21 22  2  0
 22 23  1  0
 23 24  2  0
 24 25  1  0
 25 26  2  0
 26 27  1  0
 27 28  2  0
 28 29  1  0
 13 30  2  0
 30 31  1  0
  5 32  2  0
 32 33  1  0
 32 34  1  0
 34  2  2  0
 31 10  2  0
 29 20  2  0
 28 23  1  0
  1 35  1  0
  1 36  1  0
  1 37  1  0
  3 38  1  0
  4 39  1  0
  9 40  1  0
  9 41  1  0
 11 42  1  0
 12 43  1  0
 14 44  1  1
 15 45  1  0
 15 46  1  0
 16 47  1  0
 16 48  1  0
 19 49  1  0
 21 50  1  0
 22 51  1  0
 24 52  1  0
 26 53  1  0
 27 54  1  0
 29 55  1  0
 30 56  1  0
 31 57  1  0
 33 58  1  0
 33 59  1  0
 33 60  1  0
 34 61  1  0
M  END
>  <canonical_isomeric_smiles>  (1) 
Cc1ccc(C(=O)OCc2ccc([C@H](CN)C(=O)Nc3ccc4cnccc4c3)cc2)c(C)c1

$$$$
