des_para_methyl
     RDKit          3D

 58 61  0  0  0  0  0  0  0  0999 V2000
   -7.3554    2.2210    0.4940 C   0  0  0  0  0  0  0  0  0  0  0  0
   -7.5999    0.9096    0.0981 C   0  0  0  0  0  0  0  0  0  0  0  0
   -6.6292    0.2079   -0.6164 C   0  0  0  0  0  0  0  0  0  0  0  0
   -5.4019    0.8142   -0.9356 C   0  0  0  0  0  0  0  0  0  0  0  0
   -4.4007    0.0470   -1.7249 C   0  0  0  0  0  0  0  0  0  0  0  0
   -3.6780    0.5312   -2.5796 O   0  0  0  0  0  0  0  0  0  0  0  0
   -4.4091   -1.2460   -1.3160 O   0  0  0  0  0  0  0  0  0  0  0  0
   -3.4196   -2.0879   -1.9176 C   0  0  0  0  0  0  0  0  0  0  0  0
   -2.2157   -2.1716   -1.0153 C   0  0  0  0  0  0  0  0  0  0  0  0
   -1.1320   -1.3049   -1.1967 C   0  0  0  0  0  0  0  0  0  0  0  0
   -0.0264   -1.3555   -0.3430 C   0  0  0  0  0  0  0  0  0  0  0  0
    0.0175   -2.2692    0.7195 C   0  0  0  0  0  0  0  0  0  0  0  0
    1.2159   -2.3840    1.6563 C   0  0  1  0  0  0  0  0  0  0  0  0
    2.1935   -3.5037    1.2291 C   0  0  0  0  0  0  0  0  0  0  0  0
    2.8099   -3.3001   -0.0966 N   0  0  0  0  0  0  0  0  0  0  0  0
    1.9125   -1.0456    1.9584 C   0  0  0  0  0  0  0  0  0  0  0  0
    1.5014   -0.3237    2.8653 O   0  0  0  0  0  0  0  0  0  0  0  0
    2.9669   -0.7547    1.1103 N   0  0  0  0  0  0  0  0  0  0  0  0
    3.7813    0.3926    1.0885 C   0  0  0  0  0  0  0  0  0  0  0  0
    3.6280    1.4740    1.9548 C   0  0  0  0  0  0  0  0  0  0  0  0
    4.4802    2.5799    1.8655 C   0  0  0  0  0  0  0  0  0  0  0  0
    5.5018    2.6191    0.9034 C   0  0  0  0  0  0  0  0  0  0  0  0
    6.3809    3.6970    0.7697 C   0  0  0  0  0  0  0  0  0  0  0  0
    7.3755    3.7674   -0.1458 N   0  0  0  0  0  0  0  0  0  0  0  0
    7.5048    2.7115   -0.9743 C   0  0  0  0  0  0  0  0  0  0  0  0
    6.6904    1.5905   -0.9319 C   0  0  0  0  0  0  0  0  0  0  0  0
    5.6667    1.5351    0.0225 C   0  0  0  0  0  0  0  0  0  0  0  0
    4.8008    0.4310    0.1262 C   0  0  0  0  0  0  0  0  0  0  0  0
   -1.0763   -3.1319    0.9008 C   0  0  0  0  0  0  0  0  0  0  0  0
   -2.1823   -3.0792    0.0485 C   0  0  0  0  0  0  0  0  0  0  0  0
   -5.1453    2.1394   -0.5296 C   0  0  0  0  0  0  0  0  0  0  0  0
   -3.8507    2.8396   -0.8390 C   0  0  0  0  0  0  0  0  0  0  0  0
   -6.1401    2.8324    0.1808 C   0  0  0  0  0  0  0  0  0  0  0  0
   -8.1116    2.7719    1.0483 H   0  0  0  0  0  0  0  0  0  0  0  0
   -8.5471    0.4348    0.3414 H   0  0  0  0  0  0  0  0  0  0  0  0
   -6.8397   -0.8118   -0.9300 H   0  0  0  0  0  0  0  0  0  0  0  0
   -3.1437   -1.7625   -2.9283 H   0  0  0  0  0  0  0  0  0  0  0  0
   -3.8635   -3.0834   -2.0350 H   0  0  0  0  0  0  0  0  0  0  0  0
   -1.1486   -0.5700   -2.0009 H   0  0  0  0  0  0  0  0  0  0  0  0
    0.7895   -0.6592   -0.5232 H   0  0  0  0  0  0  0  0  0  0  0  0
    0.8214   -2.6937    2.6367 H   0  0  0  0  0  0  0  0  0  0  0  0
    1.6736   -4.4691    1.2203 H   0  0  0  0  0  0  0  0  0  0  0  0
    3.0017   -3.5792    1.9661 H   0  0  0  0  0  0  0  0  0  0  0  0
    2.0651   -3.3421   -0.8013 H   0  0  0  0  0  0  0  0  0  0  0  0
    3.4014   -4.1096   -0.3015 H   0  0  0  0  0  0  0  0  0  0  0  0
    3.1769   -1.4789    0.4180 H   0  0  0  0  0  0  0  0  0  0  0  0
    2.8519    1.4919    2.7135 H   0  0  0  0  0  0  0  0  0  0  0  0
    4.3369    3.4096    2.5543 H   0  0  0  0  0  0  0  0  0  0  0  0
    6.3067    4.5656    1.4191 H   0  0  0  0  0  0  0  0  0  0  0  0
    8.3087    2.7901   -1.7008 H   0  0  0  0  0  0  0  0  0  0  0  0
    6.8560    0.7793   -1.6327 H   0  0  0  0  0  0  0  0  0  0  0  0
    4.9283   -0.4081   -0.5547 H   0  0  0  0  0  0  0  0  0  0  0  0
   -1.0821   -3.8485    1.7199 H   0  0  0  0  0  0  0  0  0  0  0  0
   -3.0239   -3.7452    0.2270 H   0  0  0  0  0  0  0  0  0  0  0  0
   -2.9955    2.2114   -0.5695 H   0  0  0  0  0  0  0  0  0  0  0  0
   -3.8027    3.0969   -1.9016 H   0  0  0  0  0  0  0  0  0  0  0  0
   -3.7539    3.7682   -0.2658 H   0  0  0  0  0  0  0  0  0  0  0  0
   -5.9712    3.8592    0.5005 H   0  0  0  0  0  0  0  0  0  0  0  0
  1  2  2  0
  2  3  1  0
  3  4  2  0
  4  5  1  0
  5  6  2  0
  5  7  1  0
  7  8  1  0
  8  9  1  0
  9 10  1  0
 10 11  2  0
 11 12  1  0
 12 13  1  0
 13 14  1  0
 14 15  1  0
 13 16  1  0
 16 17  2  0
 16 18  1  0
 18 19  1  0
 19 20  1  0
 20 21  2  0
 21 22  1  0
 22 23  2  0
 23 24  1  0
 24 25  2  0
 25 26  1  0
 26 27  2  0
 27 28  1  0
 12 29  2  0
 29 30  1  0
  4 31  1  0
 31 32  1  0
 31 33  2  0
 33  1  1  0
 30  9  2  0
 28 19  2  0
 27 22  1  0
  1 34  1  0
  2 35  1  0
  3 36  1  0
  8 37  1  0
  8 38  1  0
 10 39  1  0
 11 40  1  0
 13 41  1  1
 14 42  1  0
 14 43  1  0
 15 44  1  0
 15 45  1  0
 18 46  1  0
 20 47  1  0
 21 48  1  0
 23 49  1  0
 25 50  1  0
 26 51  1  0
 28 52  1  0
 29 53  1  0
 30 54  1  0
 32 55  1  0
 32 56  1  0
 32 57  1  0
 33 58  1  0
M  END
>  <canonical_isomeric_smiles>  (1) 
Cc1ccccc1C(=O)OCc1ccc([C@@H](CN)C(=O)Nc2ccc3cnccc3c2)cc1

$$$$
