des_ortho_methyl
     RDKit          3D

 58 61  0  0  0  0  0  0  0  0999 V2000
    7.3679    4.0871   -0.2750 C   0  0  0  0  0  0  0  0  0  0  0  0
    6.5201    2.9579    0.2325 C   0  0  0  0  0  0  0  0  0  0  0  0
    5.9451    3.0216    1.5070 C   0  0  0  0  0  0  0  0  0  0  0  0
    5.1789    1.9580    1.9914 C   0  0  0  0  0  0  0  0  0  0  0  0
    4.9881    0.8100    1.2121 C   0  0  0  0  0  0  0  0  0  0  0  0
    4.1621   -0.2927    1.7750 C   0  0  0  0  0  0  0  0  0  0  0  0
    3.5694   -0.2116    2.8395 O   0  0  0  0  0  0  0  0  0  0  0  0
    4.1816   -1.3673    0.9507 O   0  0  0  0  0  0  0  0  0  0  0  0
    3.3844   -2.4837    1.3611 C   0  0  0  0  0  0  0  0  0  0  0  0
    2.1061   -2.4970    0.5641 C   0  0  0  0  0  0  0  0  0  0  0  0
    2.0284   -3.1806   -0.6537 C   0  0  0  0  0  0  0  0  0  0  0  0
    0.8474   -3.1664   -1.4003 C   0  0  0  0  0  0  0  0  0  0  0  0
   -0.2803   -2.4568   -0.9552 C   0  0  0  0  0  0  0  0  0  0  0  0
   -1.5580   -2.4960   -1.7875 C   0  0  1  0  0  0  0  0  0  0  0  0
   -2.4187   -3.7460   -1.4905 C   0  0  0  0  0  0  0  0  0  0  0  0
   -2.9144   -3.8285   -0.1029 N   0  0  0  0  0  0  0  0  0  0  0  0
   -2.3587   -1.1821   -1.7755 C   0  0  0  0  0  0  0  0  0  0  0  0
   -2.0818   -0.2810   -2.5656 O   0  0  0  0  0  0  0  0  0  0  0  0
   -3.3406   -1.1283   -0.8017 N   0  0  0  0  0  0  0  0  0  0  0  0
   -4.2147   -0.0685   -0.4968 C   0  0  0  0  0  0  0  0  0  0  0  0
   -5.1356   -0.2844    0.5344 C   0  0  0  0  0  0  0  0  0  0  0  0
   -6.0399    0.7145    0.9043 C   0  0  0  0  0  0  0  0  0  0  0  0
   -6.0354    1.9529    0.2441 C   0  0  0  0  0  0  0  0  0  0  0  0
   -6.9134    2.9914    0.5669 C   0  0  0  0  0  0  0  0  0  0  0  0
   -6.9366    4.1970   -0.0476 N   0  0  0  0  0  0  0  0  0  0  0  0
   -6.0384    4.3832   -1.0366 C   0  0  0  0  0  0  0  0  0  0  0  0
   -5.1218    3.4248   -1.4400 C   0  0  0  0  0  0  0  0  0  0  0  0
   -5.1130    2.1828   -0.7935 C   0  0  0  0  0  0  0  0  0  0  0  0
   -4.2092    1.1647   -1.1533 C   0  0  0  0  0  0  0  0  0  0  0  0
   -0.1928   -1.7660    0.2618 C   0  0  0  0  0  0  0  0  0  0  0  0
    0.9879   -1.7830    1.0097 C   0  0  0  0  0  0  0  0  0  0  0  0
    5.5724    0.7394   -0.0588 C   0  0  0  0  0  0  0  0  0  0  0  0
    6.3381    1.8053   -0.5412 C   0  0  0  0  0  0  0  0  0  0  0  0
    8.4112    3.9317    0.0165 H   0  0  0  0  0  0  0  0  0  0  0  0
    7.3117    4.1578   -1.3664 H   0  0  0  0  0  0  0  0  0  0  0  0
    7.0257    5.0452    0.1301 H   0  0  0  0  0  0  0  0  0  0  0  0
    6.0863    3.9016    2.1311 H   0  0  0  0  0  0  0  0  0  0  0  0
    4.7325    2.0297    2.9815 H   0  0  0  0  0  0  0  0  0  0  0  0
    3.1786   -2.4957    2.4384 H   0  0  0  0  0  0  0  0  0  0  0  0
    3.9629   -3.3919    1.1557 H   0  0  0  0  0  0  0  0  0  0  0  0
    2.8909   -3.7235   -1.0342 H   0  0  0  0  0  0  0  0  0  0  0  0
    0.8193   -3.7087   -2.3436 H   0  0  0  0  0  0  0  0  0  0  0  0
   -1.2469   -2.5953   -2.8393 H   0  0  0  0  0  0  0  0  0  0  0  0
   -3.2887   -3.7526   -2.1576 H   0  0  0  0  0  0  0  0  0  0  0  0
   -1.8422   -4.6543   -1.7029 H   0  0  0  0  0  0  0  0  0  0  0  0
   -3.4362   -4.7029   -0.0009 H   0  0  0  0  0  0  0  0  0  0  0  0
   -2.1042   -3.9400    0.5169 H   0  0  0  0  0  0  0  0  0  0  0  0
   -3.4404   -1.9789   -0.2407 H   0  0  0  0  0  0  0  0  0  0  0  0
   -5.1620   -1.2343    1.0632 H   0  0  0  0  0  0  0  0  0  0  0  0
   -6.7454    0.5204    1.7088 H   0  0  0  0  0  0  0  0  0  0  0  0
   -7.6498    2.8785    1.3583 H   0  0  0  0  0  0  0  0  0  0  0  0
   -6.0729    5.3574   -1.5160 H   0  0  0  0  0  0  0  0  0  0  0  0
   -4.4281    3.6465   -2.2445 H   0  0  0  0  0  0  0  0  0  0  0  0
   -3.5032    1.3623   -1.9544 H   0  0  0  0  0  0  0  0  0  0  0  0
   -1.0340   -1.1952    0.6486 H   0  0  0  0  0  0  0  0  0  0  0  0
    1.0337   -1.2228    1.9431 H   0  0  0  0  0  0  0  0  0  0  0  0
    5.4384   -0.1366   -0.6884 H   0  0  0  0  0  0  0  0  0  0  0  0
    6.7883    1.7309   -1.5291 H   0  0  0  0  0  0  0  0  0  0  0  0
  1  2  1  0
  2  3  1  0
  3  4  2  0
  4  5  1  0
  5  6  1  0
  6  7  2  0
  6  8  1  0
  8  9  1  0
  9 10  1  0
 10 11  1  0
 11 12  2  0
 12 13  1  0
 13 14  1  0
 14 15  1  0
 15 16  1  0
 14 17  1  0
 17 18  2  0
 17 19  1  0
 19 20  1  0
 20 21  1  0
 21 22  2  0
 22 23  1  0
 23 24  2  0
 24 25  1  0
 25 26  2  0
 26 27  1  0
 27 28  2  0
 28 29  1  0
 13 30  2  0
 30 31  1  0
  5 32  2  0
 32 33  1  0
 33  2  2  0
 31 10  2  0
 29 20  2  0
 28 23  1  0
  1 34  1  0
  1 35  1  0
  1 36  1  0
  3 37  1  0
  4 38  1  0
  9 39  1  0
  9 40  1  0
 11 41  1  0
 12 42  1  0
 14 43  1  6
 15 44  1  0
 15 45  1  0
 16 46  1  0
 16 47  1  0
 19 48  1  0
 21 49  1  0
 22 50  1  0
 24 51  1  0
 26 52  1  0
 27 53  1  0
 29 54  1  0
 30 55  1  0
 31 56  1  0
 32 57  1  0
 33 58  1  0
M  END
>  <canonical_isomeric_smiles>  (1) 
Cc1ccc(C(=O)OCc2ccc([C@@H](CN)C(=O)Nc3ccc4cnccc4c3)cc2)cc1

$$$$
