n_acetyl_amine
     RDKit          3D

 66 69  0  0  0  0  0  0  0  0999 V2000
    9.3318   -1.2188   -1.7590 C   0  0  0  0  0  0  0  0  0  0  0  0
    8.2254   -1.0477   -0.7596 C   0  0  0  0  0  0  0  0  0  0  0  0
    7.2468   -2.0341   -0.6123 C   0  0  0  0  0  0  0  0  0  0  0  0
    6.1988   -1.8536    0.2904 C   0  0  0  0  0  0  0  0  0  0  0  0
    6.1062   -0.6766    1.0481 C   0  0  0  0  0  0  0  0  0  0  0  0
    4.9449   -0.5803    1.9657 C   0  0  0  0  0  0  0  0  0  0  0  0
    4.5452   -1.5151    2.6406 O   0  0  0  0  0  0  0  0  0  0  0  0
    4.3828    0.6461    1.8621 O   0  0  0  0  0  0  0  0  0  0  0  0
    3.1858    0.8417    2.6231 C   0  0  0  0  0  0  0  0  0  0  0  0
    1.9862    0.6076    1.7432 C   0  0  0  0  0  0  0  0  0  0  0  0
    1.2842   -0.6009    1.8061 C   0  0  0  0  0  0  0  0  0  0  0  0
    0.1798   -0.8255    0.9803 C   0  0  0  0  0  0  0  0  0  0  0  0
   -0.2446    0.1499    0.0661 C   0  0  0  0  0  0  0  0  0  0  0  0
   -1.4344   -0.0754   -0.8642 C   0  0  1  0  0  0  0  0  0  0  0  0
   -1.1795   -1.2454   -1.8336 C   0  0  0  0  0  0  0  0  0  0  0  0
   -2.2435   -1.5853   -2.7749 N   0  0  0  0  0  0  0  0  0  0  0  0
   -2.9555   -0.6788   -3.5217 C   0  0  0  0  0  0  0  0  0  0  0  0
   -3.9212   -1.3117   -4.4865 C   0  0  0  0  0  0  0  0  0  0  0  0
   -2.8739    0.5379   -3.3822 O   0  0  0  0  0  0  0  0  0  0  0  0
   -2.7543   -0.2941   -0.1115 C   0  0  0  0  0  0  0  0  0  0  0  0
   -2.8563   -1.0991    0.8112 O   0  0  0  0  0  0  0  0  0  0  0  0
   -3.7905    0.4712   -0.6312 N   0  0  0  0  0  0  0  0  0  0  0  0
   -5.1168    0.5659   -0.1678 C   0  0  0  0  0  0  0  0  0  0  0  0
   -6.0034    1.3269   -0.9379 C   0  0  0  0  0  0  0  0  0  0  0  0
   -7.3382    1.4739   -0.5519 C   0  0  0  0  0  0  0  0  0  0  0  0
   -7.8077    0.8601    0.6196 C   0  0  0  0  0  0  0  0  0  0  0  0
   -9.1301    0.9689    1.0588 C   0  0  0  0  0  0  0  0  0  0  0  0
   -9.6163    0.3922    2.1824 N   0  0  0  0  0  0  0  0  0  0  0  0
   -8.7420   -0.3308    2.9120 C   0  0  0  0  0  0  0  0  0  0  0  0
   -7.4096   -0.5057    2.5725 C   0  0  0  0  0  0  0  0  0  0  0  0
   -6.9244    0.0966    1.4053 C   0  0  0  0  0  0  0  0  0  0  0  0
   -5.5825   -0.0408    1.0014 C   0  0  0  0  0  0  0  0  0  0  0  0
    0.4707    1.3562   -0.0007 C   0  0  0  0  0  0  0  0  0  0  0  0
    1.5753    1.5805    0.8252 C   0  0  0  0  0  0  0  0  0  0  0  0
    7.0932    0.3204    0.9279 C   0  0  0  0  0  0  0  0  0  0  0  0
    7.0732    1.5885    1.7344 C   0  0  0  0  0  0  0  0  0  0  0  0
    8.1336    0.1269    0.0011 C   0  0  0  0  0  0  0  0  0  0  0  0
   10.2453   -0.7198   -1.4188 H   0  0  0  0  0  0  0  0  0  0  0  0
    9.5735   -2.2778   -1.8980 H   0  0  0  0  0  0  0  0  0  0  0  0
    9.0337   -0.7948   -2.7228 H   0  0  0  0  0  0  0  0  0  0  0  0
    7.2921   -2.9487   -1.1994 H   0  0  0  0  0  0  0  0  0  0  0  0
    5.4445   -2.6314    0.3969 H   0  0  0  0  0  0  0  0  0  0  0  0
    3.1558    0.2204    3.5268 H   0  0  0  0  0  0  0  0  0  0  0  0
    3.1853    1.8805    2.9737 H   0  0  0  0  0  0  0  0  0  0  0  0
    1.5950   -1.3797    2.5010 H   0  0  0  0  0  0  0  0  0  0  0  0
   -0.3519   -1.7713    1.0709 H   0  0  0  0  0  0  0  0  0  0  0  0
   -1.5312    0.8419   -1.4561 H   0  0  0  0  0  0  0  0  0  0  0  0
   -0.9769   -2.1694   -1.2791 H   0  0  0  0  0  0  0  0  0  0  0  0
   -0.2887   -1.0347   -2.4381 H   0  0  0  0  0  0  0  0  0  0  0  0
   -2.4040   -2.5719   -2.9415 H   0  0  0  0  0  0  0  0  0  0  0  0
   -4.8586   -1.5272   -3.9669 H   0  0  0  0  0  0  0  0  0  0  0  0
   -3.5123   -2.2400   -4.8954 H   0  0  0  0  0  0  0  0  0  0  0  0
   -4.1124   -0.6233   -5.3143 H   0  0  0  0  0  0  0  0  0  0  0  0
   -3.5831    0.9724   -1.4950 H   0  0  0  0  0  0  0  0  0  0  0  0
   -5.6676    1.8133   -1.8512 H   0  0  0  0  0  0  0  0  0  0  0  0
   -8.0066    2.0696   -1.1693 H   0  0  0  0  0  0  0  0  0  0  0  0
   -9.8624    1.5443    0.4985 H   0  0  0  0  0  0  0  0  0  0  0  0
   -9.1519   -0.7837    3.8103 H   0  0  0  0  0  0  0  0  0  0  0  0
   -6.7644   -1.1022    3.2094 H   0  0  0  0  0  0  0  0  0  0  0  0
   -4.9133   -0.6253    1.6257 H   0  0  0  0  0  0  0  0  0  0  0  0
    0.1789    2.1353   -0.7025 H   0  0  0  0  0  0  0  0  0  0  0  0
    2.1177    2.5203    0.7454 H   0  0  0  0  0  0  0  0  0  0  0  0
    8.0636    2.0565    1.7586 H   0  0  0  0  0  0  0  0  0  0  0  0
    6.7980    1.3877    2.7747 H   0  0  0  0  0  0  0  0  0  0  0  0
    6.3710    2.3053    1.2980 H   0  0  0  0  0  0  0  0  0  0  0  0
    8.8917    0.8993   -0.1240 H   0  0  0  0  0  0  0  0  0  0  0  0
  1  2  1  0
  2  3  1  0
  3  4  2  0
  4  5  1  0
  5  6  1  0
  6  7  2  0
  6  8  1  0
  8  9  1  0
  9 10  1  0
 10 11  1  0
 11 12  2  0
 12 13  1  0
 13 14  1  0
 14 15  1  0
 15 16  1  0
 16 17  1  0
 17 18  1  0
 17 19  2  0
 14 20  1  0
 20 21  2  0
 20 22  1  0
 22 23  1  0
 23 24  1  0
 24 25  2  0
 25 26  1  0
 26 27  2  0
 27 28  1  0
 28 29  2  0
 29 30  1  0
 30 31  2  0
 31 32  1  0
 13 33  2  0
 33 34  1  0
  5 35  2  0
 35 36  1  0
 35 37  1  0
 37  2  2  0
 34 10  2  0
 32 23  2  0
 31 26  1  0
  1 38  1  0
  1 39  1  0
  1 40  1  0
  3 41  1  0
  4 42  1  0
  9 43  1  0
  9 44  1  0
 11 45  1  0
 12 46  1  0
 14 47  1  6
 15 48  1  0
 15 49  1  0
 16 50  1  0
 18 51  1  0
 18 52  1  0
 18 53  1  0
 22 54  1  0
 24 55  1  0
 25 56  1  0
 27 57  1  0
 29 58  1  0
 30 59  1  0
 32 60  1  0
 33 61  1  0
 34 62  1  0
 36 63  1  0
 36 64  1  0
 36 65  1  0
 37 66  1  0
M  END
>  <canonical_isomeric_smiles>  (1) 
CC(=O)NC[C@@H](C(=O)Nc1ccc2cnccc2c1)c1ccc(COC(=O)c2ccc(C)cc2C)cc1

$$$$
