quinoline_regioisomer
     RDKit          3D

 61 64  0  0  0  0  0  0  0  0999 V2000
    8.9500   -1.2961    0.3475 C   0  0  0  0  0  0  0  0  0  0  0  0
    7.6820   -0.5482    0.0556 C   0  0  0  0  0  0  0  0  0  0  0  0
    6.8652   -0.1070    1.0998 C   0  0  0  0  0  0  0  0  0  0  0  0
    5.6684    0.5540    0.8233 C   0  0  0  0  0  0  0  0  0  0  0  0
    5.2638    0.7695   -0.5025 C   0  0  0  0  0  0  0  0  0  0  0  0
    3.9671    1.4662   -0.6844 C   0  0  0  0  0  0  0  0  0  0  0  0
    3.6157    2.4172   -0.0052 O   0  0  0  0  0  0  0  0  0  0  0  0
    3.2386    0.8348   -1.6340 O   0  0  0  0  0  0  0  0  0  0  0  0
    1.9156    1.3434   -1.8350 C   0  0  0  0  0  0  0  0  0  0  0  0
    0.9345    0.5108   -1.0509 C   0  0  0  0  0  0  0  0  0  0  0  0
    0.4971   -0.7253   -1.5421 C   0  0  0  0  0  0  0  0  0  0  0  0
   -0.3921   -1.5077   -0.8024 C   0  0  0  0  0  0  0  0  0  0  0  0
   -0.8577   -1.0717    0.4468 C   0  0  0  0  0  0  0  0  0  0  0  0
   -1.8219   -1.9438    1.2454 C   0  0  1  0  0  0  0  0  0  0  0  0
   -1.1303   -2.6283    2.4439 C   0  0  0  0  0  0  0  0  0  0  0  0
   -0.0780   -3.5719    2.0354 N   0  0  0  0  0  0  0  0  0  0  0  0
   -3.0495   -1.1458    1.7197 C   0  0  0  0  0  0  0  0  0  0  0  0
   -3.2920   -0.9751    2.9110 O   0  0  0  0  0  0  0  0  0  0  0  0
   -3.8150   -0.6757    0.6596 N   0  0  0  0  0  0  0  0  0  0  0  0
   -5.0206    0.0506    0.7207 C   0  0  0  0  0  0  0  0  0  0  0  0
   -5.6825    0.3706    1.9020 C   0  0  0  0  0  0  0  0  0  0  0  0
   -6.8821    1.0957    1.8675 C   0  0  0  0  0  0  0  0  0  0  0  0
   -7.4512    1.5172    0.6758 C   0  0  0  0  0  0  0  0  0  0  0  0
   -8.6039    2.2100    0.6967 N   0  0  0  0  0  0  0  0  0  0  0  0
   -9.1286    2.6046   -0.4838 C   0  0  0  0  0  0  0  0  0  0  0  0
   -8.5518    2.3383   -1.7106 C   0  0  0  0  0  0  0  0  0  0  0  0
   -7.3614    1.6218   -1.7285 C   0  0  0  0  0  0  0  0  0  0  0  0
   -6.7856    1.1948   -0.5236 C   0  0  0  0  0  0  0  0  0  0  0  0
   -5.5805    0.4661   -0.4926 C   0  0  0  0  0  0  0  0  0  0  0  0
   -0.4019    0.1569    0.9462 C   0  0  0  0  0  0  0  0  0  0  0  0
    0.4855    0.9390    0.2042 C   0  0  0  0  0  0  0  0  0  0  0  0
    6.0826    0.3497   -1.5683 C   0  0  0  0  0  0  0  0  0  0  0  0
    5.7262    0.5799   -3.0101 C   0  0  0  0  0  0  0  0  0  0  0  0
    7.2782   -0.3287   -1.2693 C   0  0  0  0  0  0  0  0  0  0  0  0
    9.3793   -0.9806    1.3043 H   0  0  0  0  0  0  0  0  0  0  0  0
    9.7026   -1.1041   -0.4245 H   0  0  0  0  0  0  0  0  0  0  0  0
    8.7490   -2.3711    0.3876 H   0  0  0  0  0  0  0  0  0  0  0  0
    7.1535   -0.2754    2.1352 H   0  0  0  0  0  0  0  0  0  0  0  0
    5.0432    0.8944    1.6470 H   0  0  0  0  0  0  0  0  0  0  0  0
    1.8300    2.4091   -1.5894 H   0  0  0  0  0  0  0  0  0  0  0  0
    1.6920    1.2638   -2.9053 H   0  0  0  0  0  0  0  0  0  0  0  0
    0.8591   -1.0917   -2.5005 H   0  0  0  0  0  0  0  0  0  0  0  0
   -0.7028   -2.4720   -1.2009 H   0  0  0  0  0  0  0  0  0  0  0  0
   -2.2182   -2.7318    0.5880 H   0  0  0  0  0  0  0  0  0  0  0  0
   -0.6928   -1.8833    3.1196 H   0  0  0  0  0  0  0  0  0  0  0  0
   -1.8717   -3.1886    3.0257 H   0  0  0  0  0  0  0  0  0  0  0  0
    0.3542   -3.9613    2.8735 H   0  0  0  0  0  0  0  0  0  0  0  0
    0.6632   -3.0522    1.5610 H   0  0  0  0  0  0  0  0  0  0  0  0
   -3.4405   -0.8423   -0.2674 H   0  0  0  0  0  0  0  0  0  0  0  0
   -5.3021    0.0738    2.8742 H   0  0  0  0  0  0  0  0  0  0  0  0
   -7.3837    1.3360    2.8023 H   0  0  0  0  0  0  0  0  0  0  0  0
  -10.0589    3.1608   -0.4111 H   0  0  0  0  0  0  0  0  0  0  0  0
   -9.0166    2.6797   -2.6283 H   0  0  0  0  0  0  0  0  0  0  0  0
   -6.8878    1.3998   -2.6810 H   0  0  0  0  0  0  0  0  0  0  0  0
   -5.0829    0.2298   -1.4300 H   0  0  0  0  0  0  0  0  0  0  0  0
   -0.7288    0.5177    1.9207 H   0  0  0  0  0  0  0  0  0  0  0  0
    0.8358    1.8840    0.6178 H   0  0  0  0  0  0  0  0  0  0  0  0
    5.3199    1.5857   -3.1580 H   0  0  0  0  0  0  0  0  0  0  0  0
    4.9989   -0.1656   -3.3454 H   0  0  0  0  0  0  0  0  0  0  0  0
    6.6105    0.5033   -3.6524 H   0  0  0  0  0  0  0  0  0  0  0  0
    7.9117   -0.6838   -2.0814 H   0  0  0  0  0  0  0  0  0  0  0  0
  1  2  1  0
  2  3  1  0
  3  4  2  0
  4  5  1  0
  5  6  1  0
  6  7  2  0
  6  8  1  0
  8  9  1  0
  9 10  1  0
 10 11  1  0
 11 12  2  0
 12 13  1  0
 13 14  1  0
 14 15  1  0
 15 16  1  0
 14 17  1  0
 17 18  2  0
 17 19  1  0
 19 20  1  0
 20 21  2  0
 21 22  1  0
 22 23  2  0
 23 24  1  0
 24 25  2  0
 25 26  1  0
 26 27  2  0
 27 28  1  0
 28 29  2  0
 13 30  2  0
 30 31  1  0
  5 32  2  0
 32 33  1  0
 32 34  1  0
 34  2  2  0
 31 10  2  0
 29 20  1  0
 28 23  1  0
  1 35  1  0
  1 36  1  0
  1 37  1  0
  3 38  1  0
  4 39  1  0
  9 40  1  0
  9 41  1  0
 11 42  1  0
 12 43  1  0
 14 44  1  6
 15 45  1  0
 15 46  1  0
 16 47  1  0
 16 48  1  0
 19 49  1  0
 21 50  1  0
 22 51  1  0
 25 52  1  0
 26 53  1  0
 27 54  1  0
 29 55  1  0
 30 56  1  0
 31 57  1  0
 33 58  1  0
 33 59  1  0
 33 60  1  0
 34 61  1  0
M  END
>  <canonical_isomeric_smiles>  (1) 
Cc1ccc(C(=O)OCc2ccc([C@@H](CN)C(=O)Nc3ccc4ncccc4c3)cc2)c(C)c1

$$$$
