SAM
     RDKit          3D

 49 51  0  0  1  0  0  0  0  0999 V2000
    0.4050   -4.8460    2.0350 N   0  0  0  0  0  0  0  0  0  0  0  0
    1.5560   -5.7450    2.1700 C   0  0  2  0  0  0  0  0  0  0  0  0
    2.5940   -5.1420    3.0890 C   0  0  0  0  0  0  0  0  0  0  0  0
    2.4730   -4.0030    3.5200 O   0  0  0  0  0  0  0  0  0  0  0  0
    3.5940   -5.8410    3.3920 O   0  0  0  0  0  0  0  0  0  0  0  0
    2.1760   -6.0690    0.8070 C   0  0  0  0  0  0  0  0  0  0  0  0
    2.7930   -4.8800    0.1280 C   0  0  0  0  0  0  0  0  0  0  0  0
    3.5950   -5.3830   -1.4110 S   0  0  0  0  0  0  0  0  0  0  0  0
    4.8490   -4.2100   -1.5850 C   0  0  0  0  0  0  0  0  0  0  0  0
    2.4080   -4.9280   -2.6620 C   0  0  0  0  0  0  0  0  0  0  0  0
    1.2500   -5.9120   -2.7030 C   0  0  1  0  0  0  0  0  0  0  0  0
    0.2340   -5.4130   -3.5550 O   0  0  0  0  0  0  0  0  0  0  0  0
    1.6420   -7.3000   -3.2330 C   0  0  1  0  0  0  0  0  0  0  0  0
    1.1620   -8.2800   -2.3550 O   0  0  0  0  0  0  0  0  0  0  0  0
    0.9590   -7.3550   -4.5860 C   0  0  1  0  0  0  0  0  0  0  0  0
    0.6370   -8.6650   -4.9910 O   0  0  0  0  0  0  0  0  0  0  0  0
   -0.2530   -6.4950   -4.3160 C   0  0  2  0  0  0  0  0  0  0  0  0
   -0.8980   -5.9810   -5.5190 N   0  0  0  0  0  0  0  0  0  0  0  0
   -0.3380   -5.6480   -6.7070 C   0  0  0  0  0  0  0  0  0  0  0  0
   -1.2620   -5.2300   -7.5720 N   0  0  0  0  0  0  0  0  0  0  0  0
   -2.4470   -5.2990   -6.9160 C   0  0  0  0  0  0  0  0  0  0  0  0
   -3.7810   -5.0060   -7.2790 C   0  0  0  0  0  0  0  0  0  0  0  0
   -4.0910   -4.5310   -8.4880 N   0  0  0  0  0  0  0  0  0  0  0  0
   -4.7450   -5.2040   -6.3660 N   0  0  0  0  0  0  0  0  0  0  0  0
   -4.4560   -5.6560   -5.1270 C   0  0  0  0  0  0  0  0  0  0  0  0
   -3.2250   -5.9380   -4.7190 N   0  0  0  0  0  0  0  0  0  0  0  0
   -2.2190   -5.7610   -5.6050 C   0  0  0  0  0  0  0  0  0  0  0  0
    0.0651   -4.5805    2.9704 H   0  0  0  0  0  0  0  0  0  0  0  0
    0.6885   -4.0003    1.5199 H   0  0  0  0  0  0  0  0  0  0  0  0
    1.1954   -6.6866    2.6098 H   0  0  0  0  0  0  0  0  0  0  0  0
    2.9568   -6.8301    0.9524 H   0  0  0  0  0  0  0  0  0  0  0  0
    1.3612   -6.4233    0.1585 H   0  0  0  0  0  0  0  0  0  0  0  0
    2.0083   -4.1424   -0.0960 H   0  0  0  0  0  0  0  0  0  0  0  0
    3.5465   -4.4375    0.7961 H   0  0  0  0  0  0  0  0  0  0  0  0
    5.1918   -3.8894   -0.5902 H   0  0  0  0  0  0  0  0  0  0  0  0
    5.6908   -4.6524   -2.1379 H   0  0  0  0  0  0  0  0  0  0  0  0
    4.4637   -3.3406   -2.1379 H   0  0  0  0  0  0  0  0  0  0  0  0
    2.0182   -3.9239   -2.4388 H   0  0  0  0  0  0  0  0  0  0  0  0
    2.9105   -4.9396   -3.6404 H   0  0  0  0  0  0  0  0  0  0  0  0
    0.9107   -6.0209   -1.6623 H   0  0  0  0  0  0  0  0  0  0  0  0
    2.7252   -7.4729   -3.3153 H   0  0  0  0  0  0  0  0  0  0  0  0
    1.3063   -7.9854   -1.4209 H   0  0  0  0  0  0  0  0  0  0  0  0
    1.5806   -7.0077   -5.4245 H   0  0  0  0  0  0  0  0  0  0  0  0
    0.4975   -9.2326   -4.1919 H   0  0  0  0  0  0  0  0  0  0  0  0
   -1.0231   -7.0958   -3.8100 H   0  0  0  0  0  0  0  0  0  0  0  0
    0.7375   -5.7139   -6.9285 H   0  0  0  0  0  0  0  0  0  0  0  0
   -5.0723   -4.3264   -8.7249 H   0  0  0  0  0  0  0  0  0  0  0  0
   -3.3488   -4.3693   -9.1836 H   0  0  0  0  0  0  0  0  0  0  0  0
   -5.2849   -5.7981   -4.4180 H   0  0  0  0  0  0  0  0  0  0  0  0
  1  2  1  0
  2  3  1  0
  2  6  1  0
  3  4  2  0
  3  5  1  0
  6  7  1  0
  8  7  1  1
  8  9  1  0
  8 10  1  0
 10 11  1  0
 11 12  1  0
 11 13  1  0
 12 17  1  0
 13 14  1  0
 13 15  1  0
 15 16  1  0
 15 17  1  0
 17 18  1  0
 18 19  1  0
 18 27  1  0
 19 20  2  0
 20 21  1  0
 21 22  2  0
 21 27  1  0
 22 23  1  0
 22 24  1  0
 24 25  2  0
 25 26  1  0
 26 27  2  0
  1 28  1  0
  1 29  1  0
  2 30  1  1
  6 31  1  0
  6 32  1  0
  7 33  1  0
  7 34  1  0
  9 35  1  0
  9 36  1  0
  9 37  1  0
 10 38  1  0
 10 39  1  0
 11 40  1  1
 13 41  1  6
 14 42  1  0
 15 43  1  6
 16 44  1  0
 17 45  1  1
 19 46  1  0
 23 47  1  0
 23 48  1  0
 25 49  1  0
M  CHG  2   5  -1   8   1
M  END
$$$$
