SAM
     RDKit          3D

 49 51  0  0  1  0  0  0  0  0999 V2000
   -0.8070    4.2430    1.9970 N   0  0  0  0  0  0  0  0  0  0  0  0
   -0.1010    5.4890    2.3300 C   0  0  2  0  0  0  0  0  0  0  0  0
   -0.2900    6.5020    1.2750 C   0  0  0  0  0  0  0  0  0  0  0  0
   -0.8830    6.2620    0.2260 O   0  0  0  0  0  0  0  0  0  0  0  0
    0.1750    7.6550    1.4900 O   0  0  0  0  0  0  0  0  0  0  0  0
    1.3980    5.2400    2.5690 C   0  0  0  0  0  0  0  0  0  0  0  0
    2.1300    4.7780    1.3370 C   0  0  0  0  0  0  0  0  0  0  0  0
    3.9120    4.6260    1.6690 S   0  0  0  0  0  0  0  0  0  0  0  0
    4.6220    4.9190    0.1100 C   0  0  0  0  0  0  0  0  0  0  0  0
    4.1380    2.8820    1.8650 C   0  0  0  0  0  0  0  0  0  0  0  0
    3.5880    2.3740    3.1730 C   0  0  1  0  0  0  0  0  0  0  0  0
    3.6240    0.9490    3.1740 O   0  0  0  0  0  0  0  0  0  0  0  0
    4.4040    2.8390    4.4000 C   0  0  1  0  0  0  0  0  0  0  0  0
    3.5350    3.3590    5.3670 O   0  0  0  0  0  0  0  0  0  0  0  0
    5.0940    1.5750    4.8490 C   0  0  1  0  0  0  0  0  0  0  0  0
    5.3900    1.5640    6.2230 O   0  0  0  0  0  0  0  0  0  0  0  0
    4.0630    0.5350    4.4460 C   0  0  2  0  0  0  0  0  0  0  0  0
    4.6000   -0.8150    4.3520 N   0  0  0  0  0  0  0  0  0  0  0  0
    5.8490   -1.2160    4.0270 C   0  0  0  0  0  0  0  0  0  0  0  0
    5.9570   -2.5450    4.0790 N   0  0  0  0  0  0  0  0  0  0  0  0
    4.7250   -2.9950    4.4540 C   0  0  0  0  0  0  0  0  0  0  0  0
    4.2050   -4.2750    4.6960 C   0  0  0  0  0  0  0  0  0  0  0  0
    4.9300   -5.3860    4.5390 N   0  0  0  0  0  0  0  0  0  0  0  0
    2.9020   -4.3690    5.0760 N   0  0  0  0  0  0  0  0  0  0  0  0
    2.1220   -3.2770    5.2140 C   0  0  0  0  0  0  0  0  0  0  0  0
    2.5620   -2.0470    4.9870 N   0  0  0  0  0  0  0  0  0  0  0  0
    3.8530   -1.9000    4.6140 C   0  0  0  0  0  0  0  0  0  0  0  0
   -1.0803    3.7607    2.8651 H   0  0  0  0  0  0  0  0  0  0  0  0
   -1.6493    4.4623    1.4463 H   0  0  0  0  0  0  0  0  0  0  0  0
   -0.5362    5.8722    3.2647 H   0  0  0  0  0  0  0  0  0  0  0  0
    1.8565    6.1777    2.9162 H   0  0  0  0  0  0  0  0  0  0  0  0
    1.4793    4.4367    3.3161 H   0  0  0  0  0  0  0  0  0  0  0  0
    1.7352    3.7989    1.0280 H   0  0  0  0  0  0  0  0  0  0  0  0
    1.9805    5.5186    0.5375 H   0  0  0  0  0  0  0  0  0  0  0  0
    5.6318    5.3357    0.2394 H   0  0  0  0  0  0  0  0  0  0  0  0
    4.6844    3.9731   -0.4481 H   0  0  0  0  0  0  0  0  0  0  0  0
    3.9992    5.6336   -0.4481 H   0  0  0  0  0  0  0  0  0  0  0  0
    3.6244    2.3646    1.0412 H   0  0  0  0  0  0  0  0  0  0  0  0
    5.2195    2.6812    1.8557 H   0  0  0  0  0  0  0  0  0  0  0  0
    2.5673    2.7760    3.2542 H   0  0  0  0  0  0  0  0  0  0  0  0
    5.1275    3.6423    4.1968 H   0  0  0  0  0  0  0  0  0  0  0  0
    3.8833    3.1506    6.2700 H   0  0  0  0  0  0  0  0  0  0  0  0
    6.0878    1.4189    4.4039 H   0  0  0  0  0  0  0  0  0  0  0  0
    4.5477    1.5953    6.7423 H   0  0  0  0  0  0  0  0  0  0  0  0
    3.2685    0.4794    5.2048 H   0  0  0  0  0  0  0  0  0  0  0  0
    6.6695   -0.5356    3.7551 H   0  0  0  0  0  0  0  0  0  0  0  0
    4.5088   -6.3068    4.7278 H   0  0  0  0  0  0  0  0  0  0  0  0
    5.9102   -5.3218    4.2292 H   0  0  0  0  0  0  0  0  0  0  0  0
    1.0766   -3.4128    5.5282 H   0  0  0  0  0  0  0  0  0  0  0  0
  1  2  1  0
  2  3  1  0
  2  6  1  0
  3  4  2  0
  3  5  1  0
  6  7  1  0
  8  7  1  6
  8  9  1  0
  8 10  1  0
 10 11  1  0
 11 12  1  0
 11 13  1  0
 12 17  1  0
 13 14  1  0
 13 15  1  0
 15 16  1  0
 15 17  1  0
 17 18  1  0
 18 19  1  0
 18 27  1  0
 19 20  2  0
 20 21  1  0
 21 22  2  0
 21 27  1  0
 22 23  1  0
 22 24  1  0
 24 25  2  0
 25 26  1  0
 26 27  2  0
  1 28  1  0
  1 29  1  0
  2 30  1  1
  6 31  1  0
  6 32  1  0
  7 33  1  0
  7 34  1  0
  9 35  1  0
  9 36  1  0
  9 37  1  0
 10 38  1  0
 10 39  1  0
 11 40  1  1
 13 41  1  6
 14 42  1  0
 15 43  1  6
 16 44  1  0
 17 45  1  1
 19 46  1  0
 23 47  1  0
 23 48  1  0
 25 49  1  0
M  CHG  2   5  -1   8   1
M  END
$$$$
